data_image0
_cell_length_a       14.2089
_cell_length_b       14.2089
_cell_length_c       14.2089
_cell_angle_alpha    60
_cell_angle_beta     60
_cell_angle_gamma    60

_symmetry_space_group_name_H-M    "P 1"
_symmetry_int_tables_number       1

loop_
  _symmetry_equiv_pos_as_xyz
  'x, y, z'

loop_
  _atom_site_label
  _atom_site_occupancy
  _atom_site_fract_x
  _atom_site_fract_y
  _atom_site_fract_z
  _atom_site_thermal_displace_type
  _atom_site_B_iso_or_equiv
  _atom_site_type_symbol
  Zn1      1.0000 0.19397  0.19397  0.41809  Biso   1.000  Zn
  Zn2      1.0000 0.19397  0.41809  0.19397  Biso   1.000  Zn
  Zn3      1.0000 0.41809  0.19397  0.19397  Biso   1.000  Zn
  Zn4      1.0000 0.80633  0.80633  0.80633  Biso   1.000  Zn
  Zn5      1.0000 0.80633  0.58101  0.80633  Biso   1.000  Zn
  Zn6      1.0000 0.80633  0.80633  0.58101  Biso   1.000  Zn
  Zn7      1.0000 0.19397  0.19397  0.19397  Biso   1.000  Zn
  Zn8      1.0000 0.58101  0.80633  0.80633  Biso   1.000  Zn
  H1       1.0000 0.02590  0.33710  0.61030  Biso   1.000  H
  H2       1.0000 0.02670  0.02590  0.61030  Biso   1.000  H
  H3       1.0000 0.02670  0.61030  0.33710  Biso   1.000  H
  H4       1.0000 0.61030  0.33710  0.02670  Biso   1.000  H
  H5       1.0000 0.02670  0.33710  0.02590  Biso   1.000  H
  H6       1.0000 0.61030  0.02590  0.33710  Biso   1.000  H
  H7       1.0000 0.02590  0.61030  0.02670  Biso   1.000  H
  H8       1.0000 0.33710  0.02590  0.02670  Biso   1.000  H
  H9       1.0000 0.33710  0.02670  0.61030  Biso   1.000  H
  H10      1.0000 0.33710  0.61030  0.02590  Biso   1.000  H
  H11      1.0000 0.61030  0.02670  0.02590  Biso   1.000  H
  H12      1.0000 0.02590  0.02670  0.33710  Biso   1.000  H
  C1       1.0000 0.57030  0.92970  0.92970  Biso   1.000  C
  C2       1.0000 0.04100  0.04060  0.53220  Biso   1.000  C
  C3       1.0000 0.53220  0.04060  0.38620  Biso   1.000  C
  C4       1.0000 0.57030  0.92970  0.57030  Biso   1.000  C
  C5       1.0000 0.99990  0.99990  0.50010  Biso   1.000  C
  C6       1.0000 0.57030  0.57030  0.92970  Biso   1.000  C
  C7       1.0000 0.50010  0.99990  0.99990  Biso   1.000  C
  C8       1.0000 0.04060  0.38620  0.53220  Biso   1.000  C
  C9       1.0000 0.04060  0.04100  0.38620  Biso   1.000  C
  C10      1.0000 0.38620  0.04060  0.04100  Biso   1.000  C
  C11      1.0000 0.92970  0.92970  0.57030  Biso   1.000  C
  C12      1.0000 0.53220  0.04100  0.04060  Biso   1.000  C
  C13      1.0000 0.04100  0.53220  0.38620  Biso   1.000  C
  C14      1.0000 0.99990  0.50010  0.50010  Biso   1.000  C
  C15      1.0000 0.50010  0.99990  0.50010  Biso   1.000  C
  C16      1.0000 0.38620  0.53220  0.04060  Biso   1.000  C
  C17      1.0000 0.92970  0.57030  0.92970  Biso   1.000  C
  C18      1.0000 0.99990  0.50010  0.99990  Biso   1.000  C
  C19      1.0000 0.53220  0.38620  0.04100  Biso   1.000  C
  C20      1.0000 0.04100  0.38620  0.04060  Biso   1.000  C
  C21      1.0000 0.04060  0.53220  0.04100  Biso   1.000  C
  C22      1.0000 0.92970  0.57030  0.57030  Biso   1.000  C
  C23      1.0000 0.50010  0.50010  0.99990  Biso   1.000  C
  C24      1.0000 0.38620  0.04100  0.53220  Biso   1.000  C
  N1       1.0000 0.10120  0.10140  0.44720  Biso   1.000  N
  N2       1.0000 0.10120  0.35020  0.10140  Biso   1.000  N
  N3       1.0000 0.35020  0.44720  0.10140  Biso   1.000  N
  N4       1.0000 0.10140  0.44720  0.10120  Biso   1.000  N
  N5       1.0000 0.10140  0.10120  0.35020  Biso   1.000  N
  N6       1.0000 0.44720  0.35020  0.10120  Biso   1.000  N
  N7       1.0000 0.35020  0.10140  0.10120  Biso   1.000  N
  N8       1.0000 0.44720  0.10120  0.10140  Biso   1.000  N
  N9       1.0000 0.10120  0.44720  0.35020  Biso   1.000  N
  N10      1.0000 0.35020  0.10120  0.44720  Biso   1.000  N
  N11      1.0000 0.44720  0.10140  0.35020  Biso   1.000  N
  N12      1.0000 0.10140  0.35020  0.44720  Biso   1.000  N
  O1       1.0000 0.53410  0.89550  0.67430  Biso   1.000  O
  O2       1.0000 0.89610  0.53410  0.67430  Biso   1.000  O
  O3       1.0000 0.89610  0.67430  0.89550  Biso   1.000  O
  O4       1.0000 0.53410  0.67430  0.89610  Biso   1.000  O
  O5       1.0000 0.89550  0.67430  0.53410  Biso   1.000  O
  O6       1.0000 0.67430  0.89550  0.89610  Biso   1.000  O
  O7       1.0000 0.67430  0.89610  0.53410  Biso   1.000  O
  O8       1.0000 0.53410  0.89610  0.89550  Biso   1.000  O
  O9       1.0000 0.25000  0.25000  0.25000  Biso   1.000  O
  O10      1.0000 0.89550  0.89610  0.67430  Biso   1.000  O
  O11      1.0000 0.89550  0.53410  0.89610  Biso   1.000  O
  O12      1.0000 0.89610  0.89550  0.53410  Biso   1.000  O
  O13      1.0000 0.67430  0.53410  0.89550  Biso   1.000  O
  O14      1.0000 0.75000  0.75000  0.75000  Biso   1.000  O
  Zn9      1.0000 0.15737  0.14726  0.50860  Biso   1.000  Zn
  Zn10     1.0000 0.15737  0.92314  0.73272  Biso   1.000  Zn
  Zn11     1.0000 0.15737  0.14726  0.73272  Biso   1.000  Zn
  Zn12     1.0000 0.77033  0.53490  0.12036  Biso   1.000  Zn
  Zn13     1.0000 0.54501  0.76022  0.12036  Biso   1.000  Zn
  Zn14     1.0000 0.54501  0.53490  0.34568  Biso   1.000  Zn
  Zn15     1.0000 0.93325  0.14726  0.73272  Biso   1.000  Zn
  Zn16     1.0000 0.54501  0.53490  0.12036  Biso   1.000  Zn
  H13      1.0000 0.32464  0.00413  0.31639  Biso   1.000  H
  H14      1.0000 0.01424  0.31533  0.31639  Biso   1.000  H
  H15      1.0000 0.32544  0.73093  0.58959  Biso   1.000  H
  H16      1.0000 0.32544  0.00413  0.89999  Biso   1.000  H
  H17      1.0000 0.74104  0.00413  0.90079  Biso   1.000  H
  H18      1.0000 0.32464  0.31533  0.58959  Biso   1.000  H
  H19      1.0000 0.01424  0.73093  0.89999  Biso   1.000  H
  H20      1.0000 0.74104  0.31533  0.89999  Biso   1.000  H
  H21      1.0000 0.32544  0.31453  0.31639  Biso   1.000  H
  H22      1.0000 0.32464  0.73093  0.90079  Biso   1.000  H
  H23      1.0000 0.01424  0.31453  0.90079  Biso   1.000  H
  H24      1.0000 0.74104  0.31453  0.58959  Biso   1.000  H
  C25      1.0000 0.78104  0.41153  0.99699  Biso   1.000  C
  C26      1.0000 0.96514  0.30063  0.39449  Biso   1.000  C
  C27      1.0000 0.31034  0.30063  0.54049  Biso   1.000  C
  C28      1.0000 0.42164  0.41153  0.35639  Biso   1.000  C
  C29      1.0000 0.85124  0.34133  0.42659  Biso   1.000  C
  C30      1.0000 0.42164  0.77093  0.99699  Biso   1.000  C
  C31      1.0000 0.85124  0.34133  0.92679  Biso   1.000  C
  C32      1.0000 0.31034  0.95503  0.39449  Biso   1.000  C
  C33      1.0000 0.81914  0.30023  0.54049  Biso   1.000  C
  C34      1.0000 0.81914  0.30063  0.88569  Biso   1.000  C
  C35      1.0000 0.78104  0.41153  0.35639  Biso   1.000  C
  C36      1.0000 0.96514  0.30023  0.88609  Biso   1.000  C
  C37      1.0000 0.31074  0.80903  0.54049  Biso   1.000  C
  C38      1.0000 0.35144  0.84113  0.42659  Biso   1.000  C
  C39      1.0000 0.35144  0.34133  0.42659  Biso   1.000  C
  C40      1.0000 0.31034  0.80903  0.88609  Biso   1.000  C
  C41      1.0000 0.78104  0.77093  0.99699  Biso   1.000  C
  C42      1.0000 0.85124  0.84113  0.92679  Biso   1.000  C
  C43      1.0000 0.31074  0.95503  0.88569  Biso   1.000  C
  C44      1.0000 0.81914  0.95503  0.88609  Biso   1.000  C
  C45      1.0000 0.96514  0.80903  0.88569  Biso   1.000  C
  C46      1.0000 0.42164  0.77093  0.35639  Biso   1.000  C
  C47      1.0000 0.35144  0.84113  0.92679  Biso   1.000  C
  C48      1.0000 0.31074  0.30023  0.39449  Biso   1.000  C
  N13      1.0000 0.00114  0.23983  0.47949  Biso   1.000  N
  N14      1.0000 0.90414  0.99103  0.82529  Biso   1.000  N
  N15      1.0000 0.25014  0.89403  0.82529  Biso   1.000  N
  N16      1.0000 0.00114  0.89403  0.82549  Biso   1.000  N
  N17      1.0000 0.90414  0.24003  0.57649  Biso   1.000  N
  N18      1.0000 0.24994  0.99103  0.82549  Biso   1.000  N
  N19      1.0000 0.90414  0.23983  0.82549  Biso   1.000  N
  N20      1.0000 0.00114  0.24003  0.82529  Biso   1.000  N
  N21      1.0000 0.24994  0.89403  0.57649  Biso   1.000  N
  N22      1.0000 0.24994  0.24003  0.47949  Biso   1.000  N
  N23      1.0000 0.25014  0.23983  0.57649  Biso   1.000  N
  N24      1.0000 0.25014  0.99103  0.47949  Biso   1.000  N
  O15      1.0000 0.45524  0.44573  0.25239  Biso   1.000  O
  O16      1.0000 0.45584  0.80713  0.25239  Biso   1.000  O
  O17      1.0000 0.81724  0.66693  0.03119  Biso   1.000  O
  O18      1.0000 0.45584  0.66693  0.03059  Biso   1.000  O
  O19      1.0000 0.45524  0.66693  0.39259  Biso   1.000  O
  O20      1.0000 0.81724  0.44573  0.03059  Biso   1.000  O
  O21      1.0000 0.45584  0.44513  0.39259  Biso   1.000  O
  O22      1.0000 0.67704  0.44513  0.03119  Biso   1.000  O
  O23      1.0000 0.10134  0.09123  0.67669  Biso   1.000  O
  O24      1.0000 0.81724  0.44513  0.25239  Biso   1.000  O
  O25      1.0000 0.67704  0.80713  0.03059  Biso   1.000  O
  O26      1.0000 0.67704  0.44573  0.39259  Biso   1.000  O
  O27      1.0000 0.45524  0.80713  0.03119  Biso   1.000  O
  O28      1.0000 0.60134  0.59123  0.17669  Biso   1.000  O
