data_image0
_cell_length_a       18.266
_cell_length_b       18.266
_cell_length_c       18.266
_cell_angle_alpha    60
_cell_angle_beta     60
_cell_angle_gamma    60

_symmetry_space_group_name_H-M    "P 1"
_symmetry_int_tables_number       1

loop_
  _symmetry_equiv_pos_as_xyz
  'x, y, z'

loop_
  _atom_site_label
  _atom_site_occupancy
  _atom_site_fract_x
  _atom_site_fract_y
  _atom_site_fract_z
  _atom_site_thermal_displace_type
  _atom_site_B_iso_or_equiv
  _atom_site_type_symbol
  C1       1.0000 0.29338  0.29338  0.29338  Biso   1.000  C
  C2       1.0000 0.29338  0.29338  0.11986  Biso   1.000  C
  C3       1.0000 0.29338  0.11986  0.29338  Biso   1.000  C
  C4       1.0000 0.11986  0.29338  0.29338  Biso   1.000  C
  C5       1.0000 0.70662  0.70662  0.70662  Biso   1.000  C
  C6       1.0000 0.70662  0.70662  0.88014  Biso   1.000  C
  C7       1.0000 0.88014  0.70662  0.70662  Biso   1.000  C
  C8       1.0000 0.70662  0.88014  0.70662  Biso   1.000  C
  C9       1.0000 0.15460  0.45520  0.45520  Biso   1.000  C
  C10      1.0000 0.45520  0.15460  0.93500  Biso   1.000  C
  C11      1.0000 0.45520  0.93500  0.15460  Biso   1.000  C
  C12      1.0000 0.93500  0.45520  0.45520  Biso   1.000  C
  C13      1.0000 0.15460  0.45520  0.93500  Biso   1.000  C
  C14      1.0000 0.45520  0.93500  0.45520  Biso   1.000  C
  C15      1.0000 0.45520  0.15460  0.45520  Biso   1.000  C
  C16      1.0000 0.93500  0.45520  0.15460  Biso   1.000  C
  C17      1.0000 0.15460  0.93500  0.45520  Biso   1.000  C
  C18      1.0000 0.45520  0.45520  0.15460  Biso   1.000  C
  C19      1.0000 0.45520  0.45520  0.93500  Biso   1.000  C
  C20      1.0000 0.93500  0.15460  0.45520  Biso   1.000  C
  C21      1.0000 0.54480  0.84540  0.54480  Biso   1.000  C
  C22      1.0000 0.84540  0.54480  0.06500  Biso   1.000  C
  C23      1.0000 0.06500  0.54480  0.84540  Biso   1.000  C
  C24      1.0000 0.54480  0.06500  0.54480  Biso   1.000  C
  C25      1.0000 0.54480  0.84540  0.06500  Biso   1.000  C
  C26      1.0000 0.06500  0.54480  0.54480  Biso   1.000  C
  C27      1.0000 0.84540  0.54480  0.54480  Biso   1.000  C
  C28      1.0000 0.54480  0.06500  0.84540  Biso   1.000  C
  C29      1.0000 0.06500  0.84540  0.54480  Biso   1.000  C
  C30      1.0000 0.54480  0.54480  0.84540  Biso   1.000  C
  C31      1.0000 0.54480  0.54480  0.06500  Biso   1.000  C
  C32      1.0000 0.84540  0.06500  0.54480  Biso   1.000  C
  C33      1.0000 0.09270  0.47310  0.47310  Biso   1.000  C
  C34      1.0000 0.47310  0.09270  0.96110  Biso   1.000  C
  C35      1.0000 0.47310  0.96110  0.09270  Biso   1.000  C
  C36      1.0000 0.96110  0.47310  0.47310  Biso   1.000  C
  C37      1.0000 0.09270  0.47310  0.96110  Biso   1.000  C
  C38      1.0000 0.47310  0.96110  0.47310  Biso   1.000  C
  C39      1.0000 0.47310  0.09270  0.47310  Biso   1.000  C
  C40      1.0000 0.96110  0.47310  0.09270  Biso   1.000  C
  C41      1.0000 0.09270  0.96110  0.47310  Biso   1.000  C
  C42      1.0000 0.47310  0.47310  0.09270  Biso   1.000  C
  C43      1.0000 0.47310  0.47310  0.96110  Biso   1.000  C
  C44      1.0000 0.96110  0.09270  0.47310  Biso   1.000  C
  C45      1.0000 0.52690  0.90730  0.52690  Biso   1.000  C
  C46      1.0000 0.90730  0.52690  0.03890  Biso   1.000  C
  C47      1.0000 0.03890  0.52690  0.90730  Biso   1.000  C
  C48      1.0000 0.52690  0.03890  0.52690  Biso   1.000  C
  C49      1.0000 0.52690  0.90730  0.03890  Biso   1.000  C
  C50      1.0000 0.03890  0.52690  0.52690  Biso   1.000  C
  C51      1.0000 0.90730  0.52690  0.52690  Biso   1.000  C
  C52      1.0000 0.52690  0.03890  0.90730  Biso   1.000  C
  C53      1.0000 0.03890  0.90730  0.52690  Biso   1.000  C
  C54      1.0000 0.52690  0.52690  0.90730  Biso   1.000  C
  C55      1.0000 0.52690  0.52690  0.03890  Biso   1.000  C
  C56      1.0000 0.90730  0.03890  0.52690  Biso   1.000  C
  C57      1.0000 0.11130  0.38870  0.38870  Biso   1.000  C
  C58      1.0000 0.05380  0.44620  0.44620  Biso   1.000  C
  C59      1.0000 0.38870  0.11130  0.11130  Biso   1.000  C
  C60      1.0000 0.44620  0.05380  0.05380  Biso   1.000  C
  C61      1.0000 0.11130  0.38870  0.11130  Biso   1.000  C
  C62      1.0000 0.05380  0.44620  0.05380  Biso   1.000  C
  C63      1.0000 0.38870  0.11130  0.38870  Biso   1.000  C
  C64      1.0000 0.44620  0.05380  0.44620  Biso   1.000  C
  C65      1.0000 0.11130  0.11130  0.38870  Biso   1.000  C
  C66      1.0000 0.05380  0.05380  0.44620  Biso   1.000  C
  C67      1.0000 0.38870  0.38870  0.11130  Biso   1.000  C
  C68      1.0000 0.44620  0.44620  0.05380  Biso   1.000  C
  C69      1.0000 0.61130  0.88870  0.61130  Biso   1.000  C
  C70      1.0000 0.55380  0.94620  0.55380  Biso   1.000  C
  C71      1.0000 0.88870  0.61130  0.88870  Biso   1.000  C
  C72      1.0000 0.94620  0.55380  0.94620  Biso   1.000  C
  C73      1.0000 0.61130  0.88870  0.88870  Biso   1.000  C
  C74      1.0000 0.55380  0.94620  0.94620  Biso   1.000  C
  C75      1.0000 0.88870  0.61130  0.61130  Biso   1.000  C
  C76      1.0000 0.94620  0.55380  0.55380  Biso   1.000  C
  C77      1.0000 0.88870  0.88870  0.61130  Biso   1.000  C
  C78      1.0000 0.94620  0.94620  0.55380  Biso   1.000  C
  C79      1.0000 0.61130  0.61130  0.88870  Biso   1.000  C
  C80      1.0000 0.55380  0.55380  0.94620  Biso   1.000  C
  C81      1.0000 0.25000  0.25000  0.25000  Biso   1.000  C
  C82      1.0000 0.75000  0.75000  0.75000  Biso   1.000  C
  C83      1.0000 0.19777  0.36600  0.36600  Biso   1.000  C
  C84      1.0000 0.36600  0.19777  0.07023  Biso   1.000  C
  C85      1.0000 0.36600  0.07023  0.19777  Biso   1.000  C
  C86      1.0000 0.07023  0.36600  0.36600  Biso   1.000  C
  C87      1.0000 0.19777  0.36600  0.07023  Biso   1.000  C
  C88      1.0000 0.36600  0.07023  0.36600  Biso   1.000  C
  C89      1.0000 0.36600  0.19777  0.36600  Biso   1.000  C
  C90      1.0000 0.07023  0.36600  0.19777  Biso   1.000  C
  C91      1.0000 0.19777  0.07023  0.36600  Biso   1.000  C
  C92      1.0000 0.36600  0.36600  0.19777  Biso   1.000  C
  C93      1.0000 0.36600  0.36600  0.07023  Biso   1.000  C
  C94      1.0000 0.07023  0.19777  0.36600  Biso   1.000  C
  C95      1.0000 0.63400  0.80223  0.63400  Biso   1.000  C
  C96      1.0000 0.80223  0.63400  0.92977  Biso   1.000  C
  C97      1.0000 0.92977  0.63400  0.80223  Biso   1.000  C
  C98      1.0000 0.63400  0.92977  0.63400  Biso   1.000  C
  C99      1.0000 0.63400  0.80223  0.92977  Biso   1.000  C
  C100     1.0000 0.92977  0.63400  0.63400  Biso   1.000  C
  C101     1.0000 0.80223  0.63400  0.63400  Biso   1.000  C
  C102     1.0000 0.63400  0.92977  0.80223  Biso   1.000  C
  C103     1.0000 0.92977  0.80223  0.63400  Biso   1.000  C
  C104     1.0000 0.63400  0.63400  0.80223  Biso   1.000  C
  C105     1.0000 0.63400  0.63400  0.92977  Biso   1.000  C
  C106     1.0000 0.80223  0.92977  0.63400  Biso   1.000  C
  O1       1.0000 0.50311  0.52067  0.33542  Biso   1.000  O
  O2       1.0000 0.50311  0.52067  0.50956  Biso   1.000  O
  O3       1.0000 0.32897  0.52067  0.50956  Biso   1.000  O
  O4       1.0000 0.50311  0.34652  0.50956  Biso   1.000  O
  O5       1.0000 0.91652  0.93410  0.09714  Biso   1.000  O
  O6       1.0000 0.91652  0.93410  0.92299  Biso   1.000  O
  O7       1.0000 0.91652  0.10824  0.92299  Biso   1.000  O
  O8       1.0000 0.09067  0.93410  0.92299  Biso   1.000  O
  O9       1.0000 0.66507  0.68264  0.15241  Biso   1.000  O
  O10      1.0000 0.66507  0.68264  0.36963  Biso   1.000  O
  O11      1.0000 0.14595  0.38074  0.67153  Biso   1.000  O
  O12      1.0000 0.36317  0.16352  0.67153  Biso   1.000  O
  O13      1.0000 0.66507  0.16352  0.36963  Biso   1.000  O
  O14      1.0000 0.66507  0.38074  0.15241  Biso   1.000  O
  O15      1.0000 0.14595  0.68264  0.67153  Biso   1.000  O
  O16      1.0000 0.36317  0.68264  0.67153  Biso   1.000  O
  O17      1.0000 0.66507  0.38074  0.67153  Biso   1.000  O
  O18      1.0000 0.66507  0.16352  0.67153  Biso   1.000  O
  O19      1.0000 0.14595  0.68264  0.36963  Biso   1.000  O
  O20      1.0000 0.36317  0.68264  0.15241  Biso   1.000  O
  O21      1.0000 0.75456  0.77213  0.28014  Biso   1.000  O
  O22      1.0000 0.75456  0.77213  0.06292  Biso   1.000  O
  O23      1.0000 0.05646  0.29125  0.76102  Biso   1.000  O
  O24      1.0000 0.27368  0.07403  0.76102  Biso   1.000  O
  O25      1.0000 0.27368  0.77213  0.06292  Biso   1.000  O
  O26      1.0000 0.05646  0.77213  0.28014  Biso   1.000  O
  O27      1.0000 0.75456  0.29125  0.76102  Biso   1.000  O
  O28      1.0000 0.75456  0.07403  0.76102  Biso   1.000  O
  O29      1.0000 0.05646  0.77213  0.76102  Biso   1.000  O
  O30      1.0000 0.27368  0.77213  0.76102  Biso   1.000  O
  O31      1.0000 0.75456  0.29125  0.06292  Biso   1.000  O
  O32      1.0000 0.75456  0.07403  0.28014  Biso   1.000  O
  O33      1.0000 0.68310  0.70067  0.17905  Biso   1.000  O
  O34      1.0000 0.68310  0.70067  0.30694  Biso   1.000  O
  O35      1.0000 0.17259  0.31805  0.68956  Biso   1.000  O
  O36      1.0000 0.30048  0.19015  0.68956  Biso   1.000  O
  O37      1.0000 0.68310  0.19015  0.30694  Biso   1.000  O
  O38      1.0000 0.68310  0.31805  0.17905  Biso   1.000  O
  O39      1.0000 0.17259  0.70067  0.68956  Biso   1.000  O
  O40      1.0000 0.30048  0.70067  0.68956  Biso   1.000  O
  O41      1.0000 0.68310  0.31805  0.68956  Biso   1.000  O
  O42      1.0000 0.68310  0.19015  0.68956  Biso   1.000  O
  O43      1.0000 0.17259  0.70067  0.30694  Biso   1.000  O
  O44      1.0000 0.30048  0.70067  0.17905  Biso   1.000  O
  O45      1.0000 0.73653  0.75410  0.25351  Biso   1.000  O
  O46      1.0000 0.73653  0.75410  0.12562  Biso   1.000  O
  O47      1.0000 0.11915  0.26461  0.74300  Biso   1.000  O
  O48      1.0000 0.24705  0.13672  0.74300  Biso   1.000  O
  O49      1.0000 0.24705  0.75410  0.12562  Biso   1.000  O
  O50      1.0000 0.11915  0.75410  0.25351  Biso   1.000  O
  O51      1.0000 0.73653  0.26461  0.74300  Biso   1.000  O
  O52      1.0000 0.73653  0.13672  0.74300  Biso   1.000  O
  O53      1.0000 0.11915  0.75410  0.74300  Biso   1.000  O
  O54      1.0000 0.24705  0.75410  0.74300  Biso   1.000  O
  O55      1.0000 0.73653  0.26461  0.12562  Biso   1.000  O
  O56      1.0000 0.73653  0.13672  0.25351  Biso   1.000  O
  O57      1.0000 0.59824  0.61580  0.32736  Biso   1.000  O
  O58      1.0000 0.65601  0.67358  0.26958  Biso   1.000  O
  O59      1.0000 0.32090  0.33847  0.60470  Biso   1.000  O
  O60      1.0000 0.26312  0.28069  0.66248  Biso   1.000  O
  O61      1.0000 0.59824  0.33847  0.32736  Biso   1.000  O
  O62      1.0000 0.65601  0.28069  0.26958  Biso   1.000  O
  O63      1.0000 0.32090  0.61580  0.60470  Biso   1.000  O
  O64      1.0000 0.26312  0.67358  0.66248  Biso   1.000  O
  O65      1.0000 0.59824  0.33847  0.60470  Biso   1.000  O
  O66      1.0000 0.65601  0.28069  0.66248  Biso   1.000  O
  O67      1.0000 0.32090  0.61580  0.32736  Biso   1.000  O
  O68      1.0000 0.26312  0.67358  0.26958  Biso   1.000  O
  O69      1.0000 0.82140  0.83896  0.10520  Biso   1.000  O
  O70      1.0000 0.76362  0.78119  0.16297  Biso   1.000  O
  O71      1.0000 0.09873  0.11630  0.82786  Biso   1.000  O
  O72      1.0000 0.15651  0.17408  0.77008  Biso   1.000  O
  O73      1.0000 0.09873  0.83896  0.10520  Biso   1.000  O
  O74      1.0000 0.15651  0.78119  0.16297  Biso   1.000  O
  O75      1.0000 0.82140  0.11630  0.82786  Biso   1.000  O
  O76      1.0000 0.76362  0.17408  0.77008  Biso   1.000  O
  O77      1.0000 0.09873  0.83896  0.82786  Biso   1.000  O
  O78      1.0000 0.15651  0.78119  0.77008  Biso   1.000  O
  O79      1.0000 0.82140  0.11630  0.10520  Biso   1.000  O
  O80      1.0000 0.76362  0.17408  0.16297  Biso   1.000  O
  O81      1.0000 0.45957  0.47713  0.46603  Biso   1.000  O
  O82      1.0000 0.96007  0.97763  0.96653  Biso   1.000  O
  O83      1.0000 0.57577  0.59334  0.28884  Biso   1.000  O
  O84      1.0000 0.57577  0.59334  0.41080  Biso   1.000  O
  O85      1.0000 0.28238  0.42191  0.58224  Biso   1.000  O
  O86      1.0000 0.40434  0.29995  0.58224  Biso   1.000  O
  O87      1.0000 0.57577  0.29995  0.41080  Biso   1.000  O
  O88      1.0000 0.57577  0.42191  0.28884  Biso   1.000  O
  O89      1.0000 0.28238  0.59334  0.58224  Biso   1.000  O
  O90      1.0000 0.40434  0.59334  0.58224  Biso   1.000  O
  O91      1.0000 0.57577  0.42191  0.58224  Biso   1.000  O
  O92      1.0000 0.57577  0.29995  0.58224  Biso   1.000  O
  O93      1.0000 0.28238  0.59334  0.41080  Biso   1.000  O
  O94      1.0000 0.40434  0.59334  0.28884  Biso   1.000  O
  O95      1.0000 0.84386  0.86143  0.14371  Biso   1.000  O
  O96      1.0000 0.84386  0.86143  0.02175  Biso   1.000  O
  O97      1.0000 0.01529  0.15482  0.85032  Biso   1.000  O
  O98      1.0000 0.13725  0.03286  0.85032  Biso   1.000  O
  O99      1.0000 0.13725  0.86143  0.02175  Biso   1.000  O
  O100     1.0000 0.01529  0.86143  0.14371  Biso   1.000  O
  O101     1.0000 0.84386  0.15482  0.85032  Biso   1.000  O
  O102     1.0000 0.84386  0.03286  0.85032  Biso   1.000  O
  O103     1.0000 0.01529  0.86143  0.85032  Biso   1.000  O
  O104     1.0000 0.13725  0.86143  0.85032  Biso   1.000  O
  O105     1.0000 0.84386  0.15482  0.02175  Biso   1.000  O
  O106     1.0000 0.84386  0.03286  0.14371  Biso   1.000  O
