data_image0
_cell_length_a       18.266
_cell_length_b       18.266
_cell_length_c       18.266
_cell_angle_alpha    60
_cell_angle_beta     60
_cell_angle_gamma    60

_symmetry_space_group_name_H-M    "P 1"
_symmetry_int_tables_number       1

loop_
  _symmetry_equiv_pos_as_xyz
  'x, y, z'

loop_
  _atom_site_label
  _atom_site_occupancy
  _atom_site_fract_x
  _atom_site_fract_y
  _atom_site_fract_z
  _atom_site_thermal_displace_type
  _atom_site_B_iso_or_equiv
  _atom_site_type_symbol
  C1       1.0000 0.29338  0.29338  0.29338  Biso   1.000  C
  C2       1.0000 0.29338  0.29338  0.11986  Biso   1.000  C
  C3       1.0000 0.29338  0.11986  0.29338  Biso   1.000  C
  C4       1.0000 0.11986  0.29338  0.29338  Biso   1.000  C
  C5       1.0000 0.70662  0.70662  0.70662  Biso   1.000  C
  C6       1.0000 0.70662  0.70662  0.88014  Biso   1.000  C
  C7       1.0000 0.88014  0.70662  0.70662  Biso   1.000  C
  C8       1.0000 0.70662  0.88014  0.70662  Biso   1.000  C
  C9       1.0000 0.15460  0.45520  0.45520  Biso   1.000  C
  C10      1.0000 0.45520  0.15460  0.93500  Biso   1.000  C
  C11      1.0000 0.45520  0.93500  0.15460  Biso   1.000  C
  C12      1.0000 0.93500  0.45520  0.45520  Biso   1.000  C
  C13      1.0000 0.15460  0.45520  0.93500  Biso   1.000  C
  C14      1.0000 0.45520  0.93500  0.45520  Biso   1.000  C
  C15      1.0000 0.45520  0.15460  0.45520  Biso   1.000  C
  C16      1.0000 0.93500  0.45520  0.15460  Biso   1.000  C
  C17      1.0000 0.15460  0.93500  0.45520  Biso   1.000  C
  C18      1.0000 0.45520  0.45520  0.15460  Biso   1.000  C
  C19      1.0000 0.45520  0.45520  0.93500  Biso   1.000  C
  C20      1.0000 0.93500  0.15460  0.45520  Biso   1.000  C
  C21      1.0000 0.54480  0.84540  0.54480  Biso   1.000  C
  C22      1.0000 0.84540  0.54480  0.06500  Biso   1.000  C
  C23      1.0000 0.06500  0.54480  0.84540  Biso   1.000  C
  C24      1.0000 0.54480  0.06500  0.54480  Biso   1.000  C
  C25      1.0000 0.54480  0.84540  0.06500  Biso   1.000  C
  C26      1.0000 0.06500  0.54480  0.54480  Biso   1.000  C
  C27      1.0000 0.84540  0.54480  0.54480  Biso   1.000  C
  C28      1.0000 0.54480  0.06500  0.84540  Biso   1.000  C
  C29      1.0000 0.06500  0.84540  0.54480  Biso   1.000  C
  C30      1.0000 0.54480  0.54480  0.84540  Biso   1.000  C
  C31      1.0000 0.54480  0.54480  0.06500  Biso   1.000  C
  C32      1.0000 0.84540  0.06500  0.54480  Biso   1.000  C
  C33      1.0000 0.09270  0.47310  0.47310  Biso   1.000  C
  C34      1.0000 0.47310  0.09270  0.96110  Biso   1.000  C
  C35      1.0000 0.47310  0.96110  0.09270  Biso   1.000  C
  C36      1.0000 0.96110  0.47310  0.47310  Biso   1.000  C
  C37      1.0000 0.09270  0.47310  0.96110  Biso   1.000  C
  C38      1.0000 0.47310  0.96110  0.47310  Biso   1.000  C
  C39      1.0000 0.47310  0.09270  0.47310  Biso   1.000  C
  C40      1.0000 0.96110  0.47310  0.09270  Biso   1.000  C
  C41      1.0000 0.09270  0.96110  0.47310  Biso   1.000  C
  C42      1.0000 0.47310  0.47310  0.09270  Biso   1.000  C
  C43      1.0000 0.47310  0.47310  0.96110  Biso   1.000  C
  C44      1.0000 0.96110  0.09270  0.47310  Biso   1.000  C
  C45      1.0000 0.52690  0.90730  0.52690  Biso   1.000  C
  C46      1.0000 0.90730  0.52690  0.03890  Biso   1.000  C
  C47      1.0000 0.03890  0.52690  0.90730  Biso   1.000  C
  C48      1.0000 0.52690  0.03890  0.52690  Biso   1.000  C
  C49      1.0000 0.52690  0.90730  0.03890  Biso   1.000  C
  C50      1.0000 0.03890  0.52690  0.52690  Biso   1.000  C
  C51      1.0000 0.90730  0.52690  0.52690  Biso   1.000  C
  C52      1.0000 0.52690  0.03890  0.90730  Biso   1.000  C
  C53      1.0000 0.03890  0.90730  0.52690  Biso   1.000  C
  C54      1.0000 0.52690  0.52690  0.90730  Biso   1.000  C
  C55      1.0000 0.52690  0.52690  0.03890  Biso   1.000  C
  C56      1.0000 0.90730  0.03890  0.52690  Biso   1.000  C
  C57      1.0000 0.11130  0.38870  0.38870  Biso   1.000  C
  C58      1.0000 0.05380  0.44620  0.44620  Biso   1.000  C
  C59      1.0000 0.38870  0.11130  0.11130  Biso   1.000  C
  C60      1.0000 0.44620  0.05380  0.05380  Biso   1.000  C
  C61      1.0000 0.11130  0.38870  0.11130  Biso   1.000  C
  C62      1.0000 0.05380  0.44620  0.05380  Biso   1.000  C
  C63      1.0000 0.38870  0.11130  0.38870  Biso   1.000  C
  C64      1.0000 0.44620  0.05380  0.44620  Biso   1.000  C
  C65      1.0000 0.11130  0.11130  0.38870  Biso   1.000  C
  C66      1.0000 0.05380  0.05380  0.44620  Biso   1.000  C
  C67      1.0000 0.38870  0.38870  0.11130  Biso   1.000  C
  C68      1.0000 0.44620  0.44620  0.05380  Biso   1.000  C
  C69      1.0000 0.61130  0.88870  0.61130  Biso   1.000  C
  C70      1.0000 0.55380  0.94620  0.55380  Biso   1.000  C
  C71      1.0000 0.88870  0.61130  0.88870  Biso   1.000  C
  C72      1.0000 0.94620  0.55380  0.94620  Biso   1.000  C
  C73      1.0000 0.61130  0.88870  0.88870  Biso   1.000  C
  C74      1.0000 0.55380  0.94620  0.94620  Biso   1.000  C
  C75      1.0000 0.88870  0.61130  0.61130  Biso   1.000  C
  C76      1.0000 0.94620  0.55380  0.55380  Biso   1.000  C
  C77      1.0000 0.88870  0.88870  0.61130  Biso   1.000  C
  C78      1.0000 0.94620  0.94620  0.55380  Biso   1.000  C
  C79      1.0000 0.61130  0.61130  0.88870  Biso   1.000  C
  C80      1.0000 0.55380  0.55380  0.94620  Biso   1.000  C
  C81      1.0000 0.25000  0.25000  0.25000  Biso   1.000  C
  C82      1.0000 0.75000  0.75000  0.75000  Biso   1.000  C
  C83      1.0000 0.19777  0.36600  0.36600  Biso   1.000  C
  C84      1.0000 0.36600  0.19777  0.07023  Biso   1.000  C
  C85      1.0000 0.36600  0.07023  0.19777  Biso   1.000  C
  C86      1.0000 0.07023  0.36600  0.36600  Biso   1.000  C
  C87      1.0000 0.19777  0.36600  0.07023  Biso   1.000  C
  C88      1.0000 0.36600  0.07023  0.36600  Biso   1.000  C
  C89      1.0000 0.36600  0.19777  0.36600  Biso   1.000  C
  C90      1.0000 0.07023  0.36600  0.19777  Biso   1.000  C
  C91      1.0000 0.19777  0.07023  0.36600  Biso   1.000  C
  C92      1.0000 0.36600  0.36600  0.19777  Biso   1.000  C
  C93      1.0000 0.36600  0.36600  0.07023  Biso   1.000  C
  C94      1.0000 0.07023  0.19777  0.36600  Biso   1.000  C
  C95      1.0000 0.63400  0.80223  0.63400  Biso   1.000  C
  C96      1.0000 0.80223  0.63400  0.92977  Biso   1.000  C
  C97      1.0000 0.92977  0.63400  0.80223  Biso   1.000  C
  C98      1.0000 0.63400  0.92977  0.63400  Biso   1.000  C
  C99      1.0000 0.63400  0.80223  0.92977  Biso   1.000  C
  C100     1.0000 0.92977  0.63400  0.63400  Biso   1.000  C
  C101     1.0000 0.80223  0.63400  0.63400  Biso   1.000  C
  C102     1.0000 0.63400  0.92977  0.80223  Biso   1.000  C
  C103     1.0000 0.92977  0.80223  0.63400  Biso   1.000  C
  C104     1.0000 0.63400  0.63400  0.80223  Biso   1.000  C
  C105     1.0000 0.63400  0.63400  0.92977  Biso   1.000  C
  C106     1.0000 0.80223  0.92977  0.63400  Biso   1.000  C
  O1       1.0000 0.59666  0.07303  0.72121  Biso   1.000  O
  O2       1.0000 0.59666  0.25099  0.72121  Biso   1.000  O
  O3       1.0000 0.41870  0.25099  0.72121  Biso   1.000  O
  O4       1.0000 0.59666  0.25099  0.54325  Biso   1.000  O
  O5       1.0000 0.01416  0.65985  0.13007  Biso   1.000  O
  O6       1.0000 0.01416  0.83782  0.13007  Biso   1.000  O
  O7       1.0000 0.19212  0.65985  0.13007  Biso   1.000  O
  O8       1.0000 0.01416  0.65985  0.30804  Biso   1.000  O
  O9       1.0000 0.44973  0.89315  0.88462  Biso   1.000  O
  O10      1.0000 0.76006  0.41439  0.57428  Biso   1.000  O
  O11      1.0000 0.23882  0.10406  0.88462  Biso   1.000  O
  O12      1.0000 0.76006  0.41439  0.36337  Biso   1.000  O
  O13      1.0000 0.23882  0.41439  0.57428  Biso   1.000  O
  O14      1.0000 0.76006  0.10406  0.88462  Biso   1.000  O
  O15      1.0000 0.44973  0.41439  0.36337  Biso   1.000  O
  O16      1.0000 0.76006  0.89315  0.88462  Biso   1.000  O
  O17      1.0000 0.76006  0.10406  0.36337  Biso   1.000  O
  O18      1.0000 0.44973  0.41439  0.88462  Biso   1.000  O
  O19      1.0000 0.76006  0.89315  0.57428  Biso   1.000  O
  O20      1.0000 0.23882  0.41439  0.88462  Biso   1.000  O
  O21      1.0000 0.16109  0.49645  0.96667  Biso   1.000  O
  O22      1.0000 0.85075  0.01769  0.27700  Biso   1.000  O
  O23      1.0000 0.37200  0.49645  0.96667  Biso   1.000  O
  O24      1.0000 0.85075  0.80678  0.48791  Biso   1.000  O
  O25      1.0000 0.37200  0.49645  0.27700  Biso   1.000  O
  O26      1.0000 0.85075  0.01769  0.96667  Biso   1.000  O
  O27      1.0000 0.16109  0.49645  0.48791  Biso   1.000  O
  O28      1.0000 0.85075  0.80678  0.96667  Biso   1.000  O
  O29      1.0000 0.85075  0.49645  0.48791  Biso   1.000  O
  O30      1.0000 0.16109  0.01769  0.96667  Biso   1.000  O
  O31      1.0000 0.85075  0.49645  0.27700  Biso   1.000  O
  O32      1.0000 0.37200  0.80678  0.96667  Biso   1.000  O
  O33      1.0000 0.39710  0.91605  0.89948  Biso   1.000  O
  O34      1.0000 0.77493  0.42926  0.52166  Biso   1.000  O
  O35      1.0000 0.26172  0.05143  0.89948  Biso   1.000  O
  O36      1.0000 0.77493  0.42926  0.38627  Biso   1.000  O
  O37      1.0000 0.26172  0.42926  0.52166  Biso   1.000  O
  O38      1.0000 0.77493  0.05143  0.89948  Biso   1.000  O
  O39      1.0000 0.39710  0.42926  0.38627  Biso   1.000  O
  O40      1.0000 0.77493  0.91605  0.89948  Biso   1.000  O
  O41      1.0000 0.77493  0.05143  0.38627  Biso   1.000  O
  O42      1.0000 0.39710  0.42926  0.89948  Biso   1.000  O
  O43      1.0000 0.77493  0.91605  0.52166  Biso   1.000  O
  O44      1.0000 0.26172  0.42926  0.89948  Biso   1.000  O
  O45      1.0000 0.21372  0.48158  0.95180  Biso   1.000  O
  O46      1.0000 0.83589  0.99479  0.32963  Biso   1.000  O
  O47      1.0000 0.34910  0.48158  0.95180  Biso   1.000  O
  O48      1.0000 0.83589  0.85941  0.46501  Biso   1.000  O
  O49      1.0000 0.34910  0.48158  0.32963  Biso   1.000  O
  O50      1.0000 0.83589  0.99479  0.95180  Biso   1.000  O
  O51      1.0000 0.21372  0.48158  0.46501  Biso   1.000  O
  O52      1.0000 0.83589  0.85941  0.95180  Biso   1.000  O
  O53      1.0000 0.83589  0.48158  0.46501  Biso   1.000  O
  O54      1.0000 0.21371  0.99479  0.95180  Biso   1.000  O
  O55      1.0000 0.83589  0.48158  0.32963  Biso   1.000  O
  O56      1.0000 0.34910  0.85941  0.95180  Biso   1.000  O
  O57      1.0000 0.41619  0.07052  0.81271  Biso   1.000  O
  O58      1.0000 0.35542  0.00975  0.87347  Biso   1.000  O
  O59      1.0000 0.68815  0.34249  0.54074  Biso   1.000  O
  O60      1.0000 0.74892  0.40325  0.47998  Biso   1.000  O
  O61      1.0000 0.41619  0.34249  0.54074  Biso   1.000  O
  O62      1.0000 0.35542  0.40325  0.47998  Biso   1.000  O
  O63      1.0000 0.68815  0.07052  0.81271  Biso   1.000  O
  O64      1.0000 0.74892  0.00975  0.87347  Biso   1.000  O
  O65      1.0000 0.68815  0.07052  0.54074  Biso   1.000  O
  O66      1.0000 0.74892  0.00975  0.47998  Biso   1.000  O
  O67      1.0000 0.41619  0.34249  0.81271  Biso   1.000  O
  O68      1.0000 0.35542  0.40325  0.87347  Biso   1.000  O
  O69      1.0000 0.19463  0.56836  0.03858  Biso   1.000  O
  O70      1.0000 0.25539  0.50760  0.97782  Biso   1.000  O
  O71      1.0000 0.92266  0.84033  0.31055  Biso   1.000  O
  O72      1.0000 0.86190  0.90109  0.37131  Biso   1.000  O
  O73      1.0000 0.19463  0.56836  0.31055  Biso   1.000  O
  O74      1.0000 0.25539  0.50760  0.37131  Biso   1.000  O
  O75      1.0000 0.92266  0.84033  0.03858  Biso   1.000  O
  O76      1.0000 0.86190  0.90109  0.97782  Biso   1.000  O
  O77      1.0000 0.92266  0.56836  0.31055  Biso   1.000  O
  O78      1.0000 0.86190  0.50760  0.37131  Biso   1.000  O
  O79      1.0000 0.19463  0.84033  0.03858  Biso   1.000  O
  O80      1.0000 0.25539  0.90109  0.97782  Biso   1.000  O
  O81      1.0000 0.55217  0.20650  0.67672  Biso   1.000  O
  O82      1.0000 0.05865  0.70434  0.17456  Biso   1.000  O
  O83      1.0000 0.49834  0.02653  0.79362  Biso   1.000  O
  O84      1.0000 0.66907  0.32340  0.62289  Biso   1.000  O
  O85      1.0000 0.37220  0.15267  0.79362  Biso   1.000  O
  O86      1.0000 0.66907  0.32340  0.49675  Biso   1.000  O
  O87      1.0000 0.37220  0.32340  0.62289  Biso   1.000  O
  O88      1.0000 0.66907  0.15267  0.79362  Biso   1.000  O
  O89      1.0000 0.49834  0.32340  0.49675  Biso   1.000  O
  O90      1.0000 0.66907  0.02653  0.79362  Biso   1.000  O
  O91      1.0000 0.66907  0.15267  0.49675  Biso   1.000  O
  O92      1.0000 0.49834  0.32340  0.79362  Biso   1.000  O
  O93      1.0000 0.66907  0.02653  0.62289  Biso   1.000  O
  O94      1.0000 0.37220  0.32340  0.79362  Biso   1.000  O
  O95      1.0000 0.11248  0.58744  0.05766  Biso   1.000  O
  O96      1.0000 0.94175  0.88432  0.22839  Biso   1.000  O
  O97      1.0000 0.23862  0.58744  0.05766  Biso   1.000  O
  O98      1.0000 0.94175  0.75817  0.35454  Biso   1.000  O
  O99      1.0000 0.23862  0.58744  0.22839  Biso   1.000  O
  O100     1.0000 0.94175  0.88432  0.05766  Biso   1.000  O
  O101     1.0000 0.11248  0.58744  0.35454  Biso   1.000  O
  O102     1.0000 0.94175  0.75817  0.05766  Biso   1.000  O
  O103     1.0000 0.94175  0.58744  0.35454  Biso   1.000  O
  O104     1.0000 0.11248  0.88432  0.05766  Biso   1.000  O
  O105     1.0000 0.94175  0.58744  0.22839  Biso   1.000  O
  O106     1.0000 0.23862  0.75817  0.05766  Biso   1.000  O
