data_image0
_cell_length_a       18.266
_cell_length_b       18.266
_cell_length_c       18.266
_cell_angle_alpha    60
_cell_angle_beta     60
_cell_angle_gamma    60

_symmetry_space_group_name_H-M    "P 1"
_symmetry_int_tables_number       1

loop_
  _symmetry_equiv_pos_as_xyz
  'x, y, z'

loop_
  _atom_site_label
  _atom_site_occupancy
  _atom_site_fract_x
  _atom_site_fract_y
  _atom_site_fract_z
  _atom_site_thermal_displace_type
  _atom_site_B_iso_or_equiv
  _atom_site_type_symbol
  C1       1.0000 0.29338  0.29338  0.29338  Biso   1.000  C
  C2       1.0000 0.29338  0.29338  0.11986  Biso   1.000  C
  C3       1.0000 0.29338  0.11986  0.29338  Biso   1.000  C
  C4       1.0000 0.11986  0.29338  0.29338  Biso   1.000  C
  C5       1.0000 0.70662  0.70662  0.70662  Biso   1.000  C
  C6       1.0000 0.70662  0.70662  0.88014  Biso   1.000  C
  C7       1.0000 0.88014  0.70662  0.70662  Biso   1.000  C
  C8       1.0000 0.70662  0.88014  0.70662  Biso   1.000  C
  C9       1.0000 0.15460  0.45520  0.45520  Biso   1.000  C
  C10      1.0000 0.45520  0.15460  0.93500  Biso   1.000  C
  C11      1.0000 0.45520  0.93500  0.15460  Biso   1.000  C
  C12      1.0000 0.93500  0.45520  0.45520  Biso   1.000  C
  C13      1.0000 0.15460  0.45520  0.93500  Biso   1.000  C
  C14      1.0000 0.45520  0.93500  0.45520  Biso   1.000  C
  C15      1.0000 0.45520  0.15460  0.45520  Biso   1.000  C
  C16      1.0000 0.93500  0.45520  0.15460  Biso   1.000  C
  C17      1.0000 0.15460  0.93500  0.45520  Biso   1.000  C
  C18      1.0000 0.45520  0.45520  0.15460  Biso   1.000  C
  C19      1.0000 0.45520  0.45520  0.93500  Biso   1.000  C
  C20      1.0000 0.93500  0.15460  0.45520  Biso   1.000  C
  C21      1.0000 0.54480  0.84540  0.54480  Biso   1.000  C
  C22      1.0000 0.84540  0.54480  0.06500  Biso   1.000  C
  C23      1.0000 0.06500  0.54480  0.84540  Biso   1.000  C
  C24      1.0000 0.54480  0.06500  0.54480  Biso   1.000  C
  C25      1.0000 0.54480  0.84540  0.06500  Biso   1.000  C
  C26      1.0000 0.06500  0.54480  0.54480  Biso   1.000  C
  C27      1.0000 0.84540  0.54480  0.54480  Biso   1.000  C
  C28      1.0000 0.54480  0.06500  0.84540  Biso   1.000  C
  C29      1.0000 0.06500  0.84540  0.54480  Biso   1.000  C
  C30      1.0000 0.54480  0.54480  0.84540  Biso   1.000  C
  C31      1.0000 0.54480  0.54480  0.06500  Biso   1.000  C
  C32      1.0000 0.84540  0.06500  0.54480  Biso   1.000  C
  C33      1.0000 0.09270  0.47310  0.47310  Biso   1.000  C
  C34      1.0000 0.47310  0.09270  0.96110  Biso   1.000  C
  C35      1.0000 0.47310  0.96110  0.09270  Biso   1.000  C
  C36      1.0000 0.96110  0.47310  0.47310  Biso   1.000  C
  C37      1.0000 0.09270  0.47310  0.96110  Biso   1.000  C
  C38      1.0000 0.47310  0.96110  0.47310  Biso   1.000  C
  C39      1.0000 0.47310  0.09270  0.47310  Biso   1.000  C
  C40      1.0000 0.96110  0.47310  0.09270  Biso   1.000  C
  C41      1.0000 0.09270  0.96110  0.47310  Biso   1.000  C
  C42      1.0000 0.47310  0.47310  0.09270  Biso   1.000  C
  C43      1.0000 0.47310  0.47310  0.96110  Biso   1.000  C
  C44      1.0000 0.96110  0.09270  0.47310  Biso   1.000  C
  C45      1.0000 0.52690  0.90730  0.52690  Biso   1.000  C
  C46      1.0000 0.90730  0.52690  0.03890  Biso   1.000  C
  C47      1.0000 0.03890  0.52690  0.90730  Biso   1.000  C
  C48      1.0000 0.52690  0.03890  0.52690  Biso   1.000  C
  C49      1.0000 0.52690  0.90730  0.03890  Biso   1.000  C
  C50      1.0000 0.03890  0.52690  0.52690  Biso   1.000  C
  C51      1.0000 0.90730  0.52690  0.52690  Biso   1.000  C
  C52      1.0000 0.52690  0.03890  0.90730  Biso   1.000  C
  C53      1.0000 0.03890  0.90730  0.52690  Biso   1.000  C
  C54      1.0000 0.52690  0.52690  0.90730  Biso   1.000  C
  C55      1.0000 0.52690  0.52690  0.03890  Biso   1.000  C
  C56      1.0000 0.90730  0.03890  0.52690  Biso   1.000  C
  C57      1.0000 0.11130  0.38870  0.38870  Biso   1.000  C
  C58      1.0000 0.05380  0.44620  0.44620  Biso   1.000  C
  C59      1.0000 0.38870  0.11130  0.11130  Biso   1.000  C
  C60      1.0000 0.44620  0.05380  0.05380  Biso   1.000  C
  C61      1.0000 0.11130  0.38870  0.11130  Biso   1.000  C
  C62      1.0000 0.05380  0.44620  0.05380  Biso   1.000  C
  C63      1.0000 0.38870  0.11130  0.38870  Biso   1.000  C
  C64      1.0000 0.44620  0.05380  0.44620  Biso   1.000  C
  C65      1.0000 0.11130  0.11130  0.38870  Biso   1.000  C
  C66      1.0000 0.05380  0.05380  0.44620  Biso   1.000  C
  C67      1.0000 0.38870  0.38870  0.11130  Biso   1.000  C
  C68      1.0000 0.44620  0.44620  0.05380  Biso   1.000  C
  C69      1.0000 0.61130  0.88870  0.61130  Biso   1.000  C
  C70      1.0000 0.55380  0.94620  0.55380  Biso   1.000  C
  C71      1.0000 0.88870  0.61130  0.88870  Biso   1.000  C
  C72      1.0000 0.94620  0.55380  0.94620  Biso   1.000  C
  C73      1.0000 0.61130  0.88870  0.88870  Biso   1.000  C
  C74      1.0000 0.55380  0.94620  0.94620  Biso   1.000  C
  C75      1.0000 0.88870  0.61130  0.61130  Biso   1.000  C
  C76      1.0000 0.94620  0.55380  0.55380  Biso   1.000  C
  C77      1.0000 0.88870  0.88870  0.61130  Biso   1.000  C
  C78      1.0000 0.94620  0.94620  0.55380  Biso   1.000  C
  C79      1.0000 0.61130  0.61130  0.88870  Biso   1.000  C
  C80      1.0000 0.55380  0.55380  0.94620  Biso   1.000  C
  C81      1.0000 0.25000  0.25000  0.25000  Biso   1.000  C
  C82      1.0000 0.75000  0.75000  0.75000  Biso   1.000  C
  C83      1.0000 0.19777  0.36600  0.36600  Biso   1.000  C
  C84      1.0000 0.36600  0.19777  0.07023  Biso   1.000  C
  C85      1.0000 0.36600  0.07023  0.19777  Biso   1.000  C
  C86      1.0000 0.07023  0.36600  0.36600  Biso   1.000  C
  C87      1.0000 0.19777  0.36600  0.07023  Biso   1.000  C
  C88      1.0000 0.36600  0.07023  0.36600  Biso   1.000  C
  C89      1.0000 0.36600  0.19777  0.36600  Biso   1.000  C
  C90      1.0000 0.07023  0.36600  0.19777  Biso   1.000  C
  C91      1.0000 0.19777  0.07023  0.36600  Biso   1.000  C
  C92      1.0000 0.36600  0.36600  0.19777  Biso   1.000  C
  C93      1.0000 0.36600  0.36600  0.07023  Biso   1.000  C
  C94      1.0000 0.07023  0.19777  0.36600  Biso   1.000  C
  C95      1.0000 0.63400  0.80223  0.63400  Biso   1.000  C
  C96      1.0000 0.80223  0.63400  0.92977  Biso   1.000  C
  C97      1.0000 0.92977  0.63400  0.80223  Biso   1.000  C
  C98      1.0000 0.63400  0.92977  0.63400  Biso   1.000  C
  C99      1.0000 0.63400  0.80223  0.92977  Biso   1.000  C
  C100     1.0000 0.92977  0.63400  0.63400  Biso   1.000  C
  C101     1.0000 0.80223  0.63400  0.63400  Biso   1.000  C
  C102     1.0000 0.63400  0.92977  0.80223  Biso   1.000  C
  C103     1.0000 0.92977  0.80223  0.63400  Biso   1.000  C
  C104     1.0000 0.63400  0.63400  0.80223  Biso   1.000  C
  C105     1.0000 0.63400  0.63400  0.92977  Biso   1.000  C
  C106     1.0000 0.80223  0.92977  0.63400  Biso   1.000  C
  O1       1.0000 0.57705  0.42293  0.42291  Biso   1.000  O
  O2       1.0000 0.13579  0.84605  0.01788  Biso   1.000  O
  O3       1.0000 0.13579  0.01809  0.01788  Biso   1.000  O
  O4       1.0000 0.57705  0.59497  0.42291  Biso   1.000  O
  O5       1.0000 0.57701  0.42285  0.59516  Biso   1.000  O
  O6       1.0000 0.74886  0.42311  0.42278  Biso   1.000  O
  O7       1.0000 0.13583  0.01817  0.84562  Biso   1.000  O
  O8       1.0000 0.96398  0.01791  0.01801  Biso   1.000  O
  O9       1.0000 0.39607  0.26767  0.79454  Biso   1.000  O
  O10      1.0000 0.39513  0.26920  0.55805  Biso   1.000  O
  O11      1.0000 0.39226  0.55811  0.26999  Biso   1.000  O
  O12      1.0000 0.31677  0.88151  0.64624  Biso   1.000  O
  O13      1.0000 0.31771  0.64552  0.88274  Biso   1.000  O
  O14      1.0000 0.32058  0.64354  0.17079  Biso   1.000  O
  O15      1.0000 0.31677  0.17335  0.64624  Biso   1.000  O
  O16      1.0000 0.31771  0.17182  0.88274  Biso   1.000  O
  O17      1.0000 0.32057  0.88291  0.17079  Biso   1.000  O
  O18      1.0000 0.39607  0.55951  0.79454  Biso   1.000  O
  O19      1.0000 0.39513  0.79550  0.55805  Biso   1.000  O
  O20      1.0000 0.39226  0.79748  0.26999  Biso   1.000  O
  O21      1.0000 0.49065  0.33558  0.59959  Biso   1.000  O
  O22      1.0000 0.42721  0.27165  0.65832  Biso   1.000  O
  O23      1.0000 0.38055  0.24646  0.76842  Biso   1.000  O
  O24      1.0000 0.38060  0.24788  0.62070  Biso   1.000  O
  O25      1.0000 0.74977  0.33618  0.33628  Biso   1.000  O
  O26      1.0000 0.37901  0.62066  0.24652  Biso   1.000  O
  O27      1.0000 0.22219  0.84895  0.84119  Biso   1.000  O
  O28      1.0000 0.28562  0.78032  0.78246  Biso   1.000  O
  O29      1.0000 0.33229  0.81867  0.67236  Biso   1.000  O
  O30      1.0000 0.33224  0.67233  0.82008  Biso   1.000  O
  O31      1.0000 0.96307  0.84540  0.10450  Biso   1.000  O
  O32      1.0000 0.33383  0.66937  0.19427  Biso   1.000  O
  O33      1.0000 0.22219  0.10544  0.84119  Biso   1.000  O
  O34      1.0000 0.28562  0.16937  0.78246  Biso   1.000  O
  O35      1.0000 0.33229  0.19456  0.67236  Biso   1.000  O
  O36      1.0000 0.33224  0.19313  0.82008  Biso   1.000  O
  O37      1.0000 0.96307  0.10484  0.10450  Biso   1.000  O
  O38      1.0000 0.33383  0.82036  0.19427  Biso   1.000  O
  O39      1.0000 0.49065  0.59206  0.59959  Biso   1.000  O
  O40      1.0000 0.42721  0.66070  0.65832  Biso   1.000  O
  O41      1.0000 0.38055  0.62235  0.76842  Biso   1.000  O
  O42      1.0000 0.38060  0.76869  0.62070  Biso   1.000  O
  O43      1.0000 0.74977  0.59561  0.33628  Biso   1.000  O
  O44      1.0000 0.37901  0.77165  0.24652  Biso   1.000  O
  O45      1.0000 0.74782  0.33528  0.59949  Biso   1.000  O
  O46      1.0000 0.48729  0.59669  0.33717  Biso   1.000  O
  O47      1.0000 0.42700  0.66092  0.26901  Biso   1.000  O
  O48      1.0000 0.96502  0.10574  0.84129  Biso   1.000  O
  O49      1.0000 0.22555  0.84432  0.10362  Biso   1.000  O
  O50      1.0000 0.28584  0.78010  0.17178  Biso   1.000  O
  O51      1.0000 0.50793  0.35168  0.64300  Biso   1.000  O
  O52      1.0000 0.50596  0.35090  0.51768  Biso   1.000  O
  O53      1.0000 0.79848  0.35150  0.35239  Biso   1.000  O
  O54      1.0000 0.66955  0.35130  0.35229  Biso   1.000  O
  O55      1.0000 0.50674  0.51598  0.35072  Biso   1.000  O
  O56      1.0000 0.20491  0.92575  0.79778  Biso   1.000  O
  O57      1.0000 0.20688  0.79769  0.92310  Biso   1.000  O
  O58      1.0000 0.91436  0.92553  0.08839  Biso   1.000  O
  O59      1.0000 0.04329  0.79631  0.08849  Biso   1.000  O
  O60      1.0000 0.20610  0.79660  0.09006  Biso   1.000  O
  O61      1.0000 0.20491  0.08934  0.79778  Biso   1.000  O
  O62      1.0000 0.20688  0.09012  0.92310  Biso   1.000  O
  O63      1.0000 0.91436  0.08952  0.08839  Biso   1.000  O
  O64      1.0000 0.04329  0.08972  0.08849  Biso   1.000  O
  O65      1.0000 0.20610  0.92504  0.09006  Biso   1.000  O
  O66      1.0000 0.50793  0.51527  0.64300  Biso   1.000  O
  O67      1.0000 0.50596  0.64333  0.51768  Biso   1.000  O
  O68      1.0000 0.79848  0.51548  0.35239  Biso   1.000  O
  O69      1.0000 0.66955  0.64471  0.35229  Biso   1.000  O
  O70      1.0000 0.50674  0.64442  0.35072  Biso   1.000  O
  O71      1.0000 0.61859  0.46726  0.46474  Biso   1.000  O
  O72      1.0000 0.66986  0.35178  0.64447  Biso   1.000  O
  O73      1.0000 0.79819  0.35188  0.51591  Biso   1.000  O
  O74      1.0000 0.09425  0.97375  0.97604  Biso   1.000  O
  O75      1.0000 0.04298  0.08924  0.79631  Biso   1.000  O
  O76      1.0000 0.91465  0.08914  0.92487  Biso   1.000  O
