data_image0
_cell_length_a       18.266
_cell_length_b       18.266
_cell_length_c       18.266
_cell_angle_alpha    60
_cell_angle_beta     60
_cell_angle_gamma    60

_symmetry_space_group_name_H-M    "P 1"
_symmetry_int_tables_number       1

loop_
  _symmetry_equiv_pos_as_xyz
  'x, y, z'

loop_
  _atom_site_label
  _atom_site_occupancy
  _atom_site_fract_x
  _atom_site_fract_y
  _atom_site_fract_z
  _atom_site_thermal_displace_type
  _atom_site_B_iso_or_equiv
  _atom_site_type_symbol
  C1       1.0000 0.29338  0.29338  0.29338  Biso   1.000  C
  C2       1.0000 0.29338  0.29338  0.11986  Biso   1.000  C
  C3       1.0000 0.29338  0.11986  0.29338  Biso   1.000  C
  C4       1.0000 0.11986  0.29338  0.29338  Biso   1.000  C
  C5       1.0000 0.70662  0.70662  0.70662  Biso   1.000  C
  C6       1.0000 0.70662  0.70662  0.88014  Biso   1.000  C
  C7       1.0000 0.88014  0.70662  0.70662  Biso   1.000  C
  C8       1.0000 0.70662  0.88014  0.70662  Biso   1.000  C
  C9       1.0000 0.15460  0.45520  0.45520  Biso   1.000  C
  C10      1.0000 0.45520  0.15460  0.93500  Biso   1.000  C
  C11      1.0000 0.45520  0.93500  0.15460  Biso   1.000  C
  C12      1.0000 0.93500  0.45520  0.45520  Biso   1.000  C
  C13      1.0000 0.15460  0.45520  0.93500  Biso   1.000  C
  C14      1.0000 0.45520  0.93500  0.45520  Biso   1.000  C
  C15      1.0000 0.45520  0.15460  0.45520  Biso   1.000  C
  C16      1.0000 0.93500  0.45520  0.15460  Biso   1.000  C
  C17      1.0000 0.15460  0.93500  0.45520  Biso   1.000  C
  C18      1.0000 0.45520  0.45520  0.15460  Biso   1.000  C
  C19      1.0000 0.45520  0.45520  0.93500  Biso   1.000  C
  C20      1.0000 0.93500  0.15460  0.45520  Biso   1.000  C
  C21      1.0000 0.54480  0.84540  0.54480  Biso   1.000  C
  C22      1.0000 0.84540  0.54480  0.06500  Biso   1.000  C
  C23      1.0000 0.06500  0.54480  0.84540  Biso   1.000  C
  C24      1.0000 0.54480  0.06500  0.54480  Biso   1.000  C
  C25      1.0000 0.54480  0.84540  0.06500  Biso   1.000  C
  C26      1.0000 0.06500  0.54480  0.54480  Biso   1.000  C
  C27      1.0000 0.84540  0.54480  0.54480  Biso   1.000  C
  C28      1.0000 0.54480  0.06500  0.84540  Biso   1.000  C
  C29      1.0000 0.06500  0.84540  0.54480  Biso   1.000  C
  C30      1.0000 0.54480  0.54480  0.84540  Biso   1.000  C
  C31      1.0000 0.54480  0.54480  0.06500  Biso   1.000  C
  C32      1.0000 0.84540  0.06500  0.54480  Biso   1.000  C
  C33      1.0000 0.09270  0.47310  0.47310  Biso   1.000  C
  C34      1.0000 0.47310  0.09270  0.96110  Biso   1.000  C
  C35      1.0000 0.47310  0.96110  0.09270  Biso   1.000  C
  C36      1.0000 0.96110  0.47310  0.47310  Biso   1.000  C
  C37      1.0000 0.09270  0.47310  0.96110  Biso   1.000  C
  C38      1.0000 0.47310  0.96110  0.47310  Biso   1.000  C
  C39      1.0000 0.47310  0.09270  0.47310  Biso   1.000  C
  C40      1.0000 0.96110  0.47310  0.09270  Biso   1.000  C
  C41      1.0000 0.09270  0.96110  0.47310  Biso   1.000  C
  C42      1.0000 0.47310  0.47310  0.09270  Biso   1.000  C
  C43      1.0000 0.47310  0.47310  0.96110  Biso   1.000  C
  C44      1.0000 0.96110  0.09270  0.47310  Biso   1.000  C
  C45      1.0000 0.52690  0.90730  0.52690  Biso   1.000  C
  C46      1.0000 0.90730  0.52690  0.03890  Biso   1.000  C
  C47      1.0000 0.03890  0.52690  0.90730  Biso   1.000  C
  C48      1.0000 0.52690  0.03890  0.52690  Biso   1.000  C
  C49      1.0000 0.52690  0.90730  0.03890  Biso   1.000  C
  C50      1.0000 0.03890  0.52690  0.52690  Biso   1.000  C
  C51      1.0000 0.90730  0.52690  0.52690  Biso   1.000  C
  C52      1.0000 0.52690  0.03890  0.90730  Biso   1.000  C
  C53      1.0000 0.03890  0.90730  0.52690  Biso   1.000  C
  C54      1.0000 0.52690  0.52690  0.90730  Biso   1.000  C
  C55      1.0000 0.52690  0.52690  0.03890  Biso   1.000  C
  C56      1.0000 0.90730  0.03890  0.52690  Biso   1.000  C
  C57      1.0000 0.11130  0.38870  0.38870  Biso   1.000  C
  C58      1.0000 0.05380  0.44620  0.44620  Biso   1.000  C
  C59      1.0000 0.38870  0.11130  0.11130  Biso   1.000  C
  C60      1.0000 0.44620  0.05380  0.05380  Biso   1.000  C
  C61      1.0000 0.11130  0.38870  0.11130  Biso   1.000  C
  C62      1.0000 0.05380  0.44620  0.05380  Biso   1.000  C
  C63      1.0000 0.38870  0.11130  0.38870  Biso   1.000  C
  C64      1.0000 0.44620  0.05380  0.44620  Biso   1.000  C
  C65      1.0000 0.11130  0.11130  0.38870  Biso   1.000  C
  C66      1.0000 0.05380  0.05380  0.44620  Biso   1.000  C
  C67      1.0000 0.38870  0.38870  0.11130  Biso   1.000  C
  C68      1.0000 0.44620  0.44620  0.05380  Biso   1.000  C
  C69      1.0000 0.61130  0.88870  0.61130  Biso   1.000  C
  C70      1.0000 0.55380  0.94620  0.55380  Biso   1.000  C
  C71      1.0000 0.88870  0.61130  0.88870  Biso   1.000  C
  C72      1.0000 0.94620  0.55380  0.94620  Biso   1.000  C
  C73      1.0000 0.61130  0.88870  0.88870  Biso   1.000  C
  C74      1.0000 0.55380  0.94620  0.94620  Biso   1.000  C
  C75      1.0000 0.88870  0.61130  0.61130  Biso   1.000  C
  C76      1.0000 0.94620  0.55380  0.55380  Biso   1.000  C
  C77      1.0000 0.88870  0.88870  0.61130  Biso   1.000  C
  C78      1.0000 0.94620  0.94620  0.55380  Biso   1.000  C
  C79      1.0000 0.61130  0.61130  0.88870  Biso   1.000  C
  C80      1.0000 0.55380  0.55380  0.94620  Biso   1.000  C
  C81      1.0000 0.25000  0.25000  0.25000  Biso   1.000  C
  C82      1.0000 0.75000  0.75000  0.75000  Biso   1.000  C
  C83      1.0000 0.19777  0.36600  0.36600  Biso   1.000  C
  C84      1.0000 0.36600  0.19777  0.07023  Biso   1.000  C
  C85      1.0000 0.36600  0.07023  0.19777  Biso   1.000  C
  C86      1.0000 0.07023  0.36600  0.36600  Biso   1.000  C
  C87      1.0000 0.19777  0.36600  0.07023  Biso   1.000  C
  C88      1.0000 0.36600  0.07023  0.36600  Biso   1.000  C
  C89      1.0000 0.36600  0.19777  0.36600  Biso   1.000  C
  C90      1.0000 0.07023  0.36600  0.19777  Biso   1.000  C
  C91      1.0000 0.19777  0.07023  0.36600  Biso   1.000  C
  C92      1.0000 0.36600  0.36600  0.19777  Biso   1.000  C
  C93      1.0000 0.36600  0.36600  0.07023  Biso   1.000  C
  C94      1.0000 0.07023  0.19777  0.36600  Biso   1.000  C
  C95      1.0000 0.63400  0.80223  0.63400  Biso   1.000  C
  C96      1.0000 0.80223  0.63400  0.92977  Biso   1.000  C
  C97      1.0000 0.92977  0.63400  0.80223  Biso   1.000  C
  C98      1.0000 0.63400  0.92977  0.63400  Biso   1.000  C
  C99      1.0000 0.63400  0.80223  0.92977  Biso   1.000  C
  C100     1.0000 0.92977  0.63400  0.63400  Biso   1.000  C
  C101     1.0000 0.80223  0.63400  0.63400  Biso   1.000  C
  C102     1.0000 0.63400  0.92977  0.80223  Biso   1.000  C
  C103     1.0000 0.92977  0.80223  0.63400  Biso   1.000  C
  C104     1.0000 0.63400  0.63400  0.80223  Biso   1.000  C
  C105     1.0000 0.63400  0.63400  0.92977  Biso   1.000  C
  C106     1.0000 0.80223  0.92977  0.63400  Biso   1.000  C
  O1       1.0000 0.50181  0.51932  0.33456  Biso   1.000  O
  O2       1.0000 0.50181  0.51932  0.50818  Biso   1.000  O
  O3       1.0000 0.32819  0.51932  0.50818  Biso   1.000  O
  O4       1.0000 0.50181  0.34570  0.50818  Biso   1.000  O
  O5       1.0000 0.91294  0.93043  0.09291  Biso   1.000  O
  O6       1.0000 0.91294  0.93043  0.91928  Biso   1.000  O
  O7       1.0000 0.91294  0.10405  0.91928  Biso   1.000  O
  O8       1.0000 0.08656  0.93043  0.91928  Biso   1.000  O
  O9       1.0000 0.66326  0.68076  0.14862  Biso   1.000  O
  O10      1.0000 0.66326  0.68076  0.36708  Biso   1.000  O
  O11      1.0000 0.14226  0.37822  0.66962  Biso   1.000  O
  O12      1.0000 0.36072  0.15976  0.66962  Biso   1.000  O
  O13      1.0000 0.66326  0.15976  0.36708  Biso   1.000  O
  O14      1.0000 0.66326  0.37822  0.14862  Biso   1.000  O
  O15      1.0000 0.14226  0.68076  0.66962  Biso   1.000  O
  O16      1.0000 0.36072  0.68076  0.66962  Biso   1.000  O
  O17      1.0000 0.66326  0.37822  0.66962  Biso   1.000  O
  O18      1.0000 0.66326  0.15976  0.66962  Biso   1.000  O
  O19      1.0000 0.14226  0.68076  0.36708  Biso   1.000  O
  O20      1.0000 0.36072  0.68076  0.14862  Biso   1.000  O
  O21      1.0000 0.75149  0.76899  0.27885  Biso   1.000  O
  O22      1.0000 0.75149  0.76899  0.06039  Biso   1.000  O
  O23      1.0000 0.05403  0.28999  0.75785  Biso   1.000  O
  O24      1.0000 0.27249  0.07153  0.75785  Biso   1.000  O
  O25      1.0000 0.27249  0.76899  0.06039  Biso   1.000  O
  O26      1.0000 0.05403  0.76899  0.27885  Biso   1.000  O
  O27      1.0000 0.75149  0.28999  0.75785  Biso   1.000  O
  O28      1.0000 0.75149  0.07153  0.75785  Biso   1.000  O
  O29      1.0000 0.05403  0.76899  0.75785  Biso   1.000  O
  O30      1.0000 0.27249  0.76899  0.75785  Biso   1.000  O
  O31      1.0000 0.75149  0.28999  0.06039  Biso   1.000  O
  O32      1.0000 0.75149  0.07153  0.27885  Biso   1.000  O
  O33      1.0000 0.68089  0.69839  0.17537  Biso   1.000  O
  O34      1.0000 0.68089  0.69839  0.30508  Biso   1.000  O
  O35      1.0000 0.16901  0.31622  0.68724  Biso   1.000  O
  O36      1.0000 0.29872  0.18651  0.68724  Biso   1.000  O
  O37      1.0000 0.68089  0.18651  0.30508  Biso   1.000  O
  O38      1.0000 0.68089  0.31622  0.17537  Biso   1.000  O
  O39      1.0000 0.16901  0.69839  0.68724  Biso   1.000  O
  O40      1.0000 0.29872  0.69839  0.68724  Biso   1.000  O
  O41      1.0000 0.68089  0.31622  0.68724  Biso   1.000  O
  O42      1.0000 0.68089  0.18651  0.68724  Biso   1.000  O
  O43      1.0000 0.16901  0.69839  0.30508  Biso   1.000  O
  O44      1.0000 0.29872  0.69839  0.17537  Biso   1.000  O
  O45      1.0000 0.73387  0.75137  0.25210  Biso   1.000  O
  O46      1.0000 0.73387  0.75137  0.12239  Biso   1.000  O
  O47      1.0000 0.11603  0.26324  0.74022  Biso   1.000  O
  O48      1.0000 0.24574  0.13353  0.74022  Biso   1.000  O
  O49      1.0000 0.24574  0.75137  0.12239  Biso   1.000  O
  O50      1.0000 0.11603  0.75137  0.25210  Biso   1.000  O
  O51      1.0000 0.73387  0.26324  0.74022  Biso   1.000  O
  O52      1.0000 0.73387  0.13353  0.74022  Biso   1.000  O
  O53      1.0000 0.11603  0.75137  0.74022  Biso   1.000  O
  O54      1.0000 0.24574  0.75137  0.74022  Biso   1.000  O
  O55      1.0000 0.73387  0.26324  0.12239  Biso   1.000  O
  O56      1.0000 0.73387  0.13353  0.25210  Biso   1.000  O
  O57      1.0000 0.59634  0.61384  0.32685  Biso   1.000  O
  O58      1.0000 0.65370  0.67120  0.26949  Biso   1.000  O
  O59      1.0000 0.32049  0.33799  0.60270  Biso   1.000  O
  O60      1.0000 0.26313  0.28063  0.66006  Biso   1.000  O
  O61      1.0000 0.59634  0.33799  0.32685  Biso   1.000  O
  O62      1.0000 0.65370  0.28063  0.26949  Biso   1.000  O
  O63      1.0000 0.32049  0.61384  0.60270  Biso   1.000  O
  O64      1.0000 0.26313  0.67120  0.66006  Biso   1.000  O
  O65      1.0000 0.59634  0.33799  0.60270  Biso   1.000  O
  O66      1.0000 0.65370  0.28063  0.66006  Biso   1.000  O
  O67      1.0000 0.32049  0.61384  0.32685  Biso   1.000  O
  O68      1.0000 0.26313  0.67120  0.26949  Biso   1.000  O
  O69      1.0000 0.81841  0.83591  0.10062  Biso   1.000  O
  O70      1.0000 0.76105  0.77855  0.15798  Biso   1.000  O
  O71      1.0000 0.09426  0.11176  0.82477  Biso   1.000  O
  O72      1.0000 0.15162  0.16912  0.76741  Biso   1.000  O
  O73      1.0000 0.09426  0.83591  0.10062  Biso   1.000  O
  O74      1.0000 0.15162  0.77855  0.15798  Biso   1.000  O
  O75      1.0000 0.81841  0.11176  0.82477  Biso   1.000  O
  O76      1.0000 0.76105  0.16912  0.76741  Biso   1.000  O
  O77      1.0000 0.09426  0.83591  0.82477  Biso   1.000  O
  O78      1.0000 0.15162  0.77855  0.76741  Biso   1.000  O
  O79      1.0000 0.81841  0.11176  0.10062  Biso   1.000  O
  O80      1.0000 0.76105  0.16912  0.15798  Biso   1.000  O
  O81      1.0000 0.45842  0.47592  0.46477  Biso   1.000  O
  O82      1.0000 0.95634  0.97384  0.96269  Biso   1.000  O
  O83      1.0000 0.57403  0.59153  0.28873  Biso   1.000  O
  O84      1.0000 0.57403  0.59153  0.40958  Biso   1.000  O
  O85      1.0000 0.28237  0.42073  0.58039  Biso   1.000  O
  O86      1.0000 0.40323  0.29987  0.58039  Biso   1.000  O
  O87      1.0000 0.57403  0.29987  0.40958  Biso   1.000  O
  O88      1.0000 0.57403  0.42073  0.28873  Biso   1.000  O
  O89      1.0000 0.28237  0.59153  0.58039  Biso   1.000  O
  O90      1.0000 0.40323  0.59153  0.58039  Biso   1.000  O
  O91      1.0000 0.57403  0.42073  0.58039  Biso   1.000  O
  O92      1.0000 0.57403  0.29987  0.58039  Biso   1.000  O
  O93      1.0000 0.28237  0.59153  0.40958  Biso   1.000  O
  O94      1.0000 0.40323  0.59153  0.28873  Biso   1.000  O
  O95      1.0000 0.84072  0.85822  0.13874  Biso   1.000  O
  O96      1.0000 0.84072  0.85822  0.01788  Biso   1.000  O
  O97      1.0000 0.01153  0.14988  0.84708  Biso   1.000  O
  O98      1.0000 0.13238  0.02903  0.84708  Biso   1.000  O
  O99      1.0000 0.13238  0.85822  0.01788  Biso   1.000  O
  O100     1.0000 0.01153  0.85822  0.13874  Biso   1.000  O
  O101     1.0000 0.84072  0.14988  0.84708  Biso   1.000  O
  O102     1.0000 0.84072  0.02903  0.84708  Biso   1.000  O
  O103     1.0000 0.01153  0.85822  0.84708  Biso   1.000  O
  O104     1.0000 0.13238  0.85822  0.84708  Biso   1.000  O
  O105     1.0000 0.84072  0.14988  0.01788  Biso   1.000  O
  O106     1.0000 0.84072  0.02903  0.13874  Biso   1.000  O
