data_image0
_cell_length_a       18.266
_cell_length_b       18.266
_cell_length_c       18.266
_cell_angle_alpha    60
_cell_angle_beta     60
_cell_angle_gamma    60

_symmetry_space_group_name_H-M    "P 1"
_symmetry_int_tables_number       1

loop_
  _symmetry_equiv_pos_as_xyz
  'x, y, z'

loop_
  _atom_site_label
  _atom_site_occupancy
  _atom_site_fract_x
  _atom_site_fract_y
  _atom_site_fract_z
  _atom_site_thermal_displace_type
  _atom_site_B_iso_or_equiv
  _atom_site_type_symbol
  C1       1.0000 0.29338  0.29338  0.29338  Biso   1.000  C
  C2       1.0000 0.29338  0.29338  0.11986  Biso   1.000  C
  C3       1.0000 0.29338  0.11986  0.29338  Biso   1.000  C
  C4       1.0000 0.11986  0.29338  0.29338  Biso   1.000  C
  C5       1.0000 0.70662  0.70662  0.70662  Biso   1.000  C
  C6       1.0000 0.70662  0.70662  0.88014  Biso   1.000  C
  C7       1.0000 0.88014  0.70662  0.70662  Biso   1.000  C
  C8       1.0000 0.70662  0.88014  0.70662  Biso   1.000  C
  C9       1.0000 0.15460  0.45520  0.45520  Biso   1.000  C
  C10      1.0000 0.45520  0.15460  0.93500  Biso   1.000  C
  C11      1.0000 0.45520  0.93500  0.15460  Biso   1.000  C
  C12      1.0000 0.93500  0.45520  0.45520  Biso   1.000  C
  C13      1.0000 0.15460  0.45520  0.93500  Biso   1.000  C
  C14      1.0000 0.45520  0.93500  0.45520  Biso   1.000  C
  C15      1.0000 0.45520  0.15460  0.45520  Biso   1.000  C
  C16      1.0000 0.93500  0.45520  0.15460  Biso   1.000  C
  C17      1.0000 0.15460  0.93500  0.45520  Biso   1.000  C
  C18      1.0000 0.45520  0.45520  0.15460  Biso   1.000  C
  C19      1.0000 0.45520  0.45520  0.93500  Biso   1.000  C
  C20      1.0000 0.93500  0.15460  0.45520  Biso   1.000  C
  C21      1.0000 0.54480  0.84540  0.54480  Biso   1.000  C
  C22      1.0000 0.84540  0.54480  0.06500  Biso   1.000  C
  C23      1.0000 0.06500  0.54480  0.84540  Biso   1.000  C
  C24      1.0000 0.54480  0.06500  0.54480  Biso   1.000  C
  C25      1.0000 0.54480  0.84540  0.06500  Biso   1.000  C
  C26      1.0000 0.06500  0.54480  0.54480  Biso   1.000  C
  C27      1.0000 0.84540  0.54480  0.54480  Biso   1.000  C
  C28      1.0000 0.54480  0.06500  0.84540  Biso   1.000  C
  C29      1.0000 0.06500  0.84540  0.54480  Biso   1.000  C
  C30      1.0000 0.54480  0.54480  0.84540  Biso   1.000  C
  C31      1.0000 0.54480  0.54480  0.06500  Biso   1.000  C
  C32      1.0000 0.84540  0.06500  0.54480  Biso   1.000  C
  C33      1.0000 0.09270  0.47310  0.47310  Biso   1.000  C
  C34      1.0000 0.47310  0.09270  0.96110  Biso   1.000  C
  C35      1.0000 0.47310  0.96110  0.09270  Biso   1.000  C
  C36      1.0000 0.96110  0.47310  0.47310  Biso   1.000  C
  C37      1.0000 0.09270  0.47310  0.96110  Biso   1.000  C
  C38      1.0000 0.47310  0.96110  0.47310  Biso   1.000  C
  C39      1.0000 0.47310  0.09270  0.47310  Biso   1.000  C
  C40      1.0000 0.96110  0.47310  0.09270  Biso   1.000  C
  C41      1.0000 0.09270  0.96110  0.47310  Biso   1.000  C
  C42      1.0000 0.47310  0.47310  0.09270  Biso   1.000  C
  C43      1.0000 0.47310  0.47310  0.96110  Biso   1.000  C
  C44      1.0000 0.96110  0.09270  0.47310  Biso   1.000  C
  C45      1.0000 0.52690  0.90730  0.52690  Biso   1.000  C
  C46      1.0000 0.90730  0.52690  0.03890  Biso   1.000  C
  C47      1.0000 0.03890  0.52690  0.90730  Biso   1.000  C
  C48      1.0000 0.52690  0.03890  0.52690  Biso   1.000  C
  C49      1.0000 0.52690  0.90730  0.03890  Biso   1.000  C
  C50      1.0000 0.03890  0.52690  0.52690  Biso   1.000  C
  C51      1.0000 0.90730  0.52690  0.52690  Biso   1.000  C
  C52      1.0000 0.52690  0.03890  0.90730  Biso   1.000  C
  C53      1.0000 0.03890  0.90730  0.52690  Biso   1.000  C
  C54      1.0000 0.52690  0.52690  0.90730  Biso   1.000  C
  C55      1.0000 0.52690  0.52690  0.03890  Biso   1.000  C
  C56      1.0000 0.90730  0.03890  0.52690  Biso   1.000  C
  C57      1.0000 0.11130  0.38870  0.38870  Biso   1.000  C
  C58      1.0000 0.05380  0.44620  0.44620  Biso   1.000  C
  C59      1.0000 0.38870  0.11130  0.11130  Biso   1.000  C
  C60      1.0000 0.44620  0.05380  0.05380  Biso   1.000  C
  C61      1.0000 0.11130  0.38870  0.11130  Biso   1.000  C
  C62      1.0000 0.05380  0.44620  0.05380  Biso   1.000  C
  C63      1.0000 0.38870  0.11130  0.38870  Biso   1.000  C
  C64      1.0000 0.44620  0.05380  0.44620  Biso   1.000  C
  C65      1.0000 0.11130  0.11130  0.38870  Biso   1.000  C
  C66      1.0000 0.05380  0.05380  0.44620  Biso   1.000  C
  C67      1.0000 0.38870  0.38870  0.11130  Biso   1.000  C
  C68      1.0000 0.44620  0.44620  0.05380  Biso   1.000  C
  C69      1.0000 0.61130  0.88870  0.61130  Biso   1.000  C
  C70      1.0000 0.55380  0.94620  0.55380  Biso   1.000  C
  C71      1.0000 0.88870  0.61130  0.88870  Biso   1.000  C
  C72      1.0000 0.94620  0.55380  0.94620  Biso   1.000  C
  C73      1.0000 0.61130  0.88870  0.88870  Biso   1.000  C
  C74      1.0000 0.55380  0.94620  0.94620  Biso   1.000  C
  C75      1.0000 0.88870  0.61130  0.61130  Biso   1.000  C
  C76      1.0000 0.94620  0.55380  0.55380  Biso   1.000  C
  C77      1.0000 0.88870  0.88870  0.61130  Biso   1.000  C
  C78      1.0000 0.94620  0.94620  0.55380  Biso   1.000  C
  C79      1.0000 0.61130  0.61130  0.88870  Biso   1.000  C
  C80      1.0000 0.55380  0.55380  0.94620  Biso   1.000  C
  C81      1.0000 0.25000  0.25000  0.25000  Biso   1.000  C
  C82      1.0000 0.75000  0.75000  0.75000  Biso   1.000  C
  C83      1.0000 0.19777  0.36600  0.36600  Biso   1.000  C
  C84      1.0000 0.36600  0.19777  0.07023  Biso   1.000  C
  C85      1.0000 0.36600  0.07023  0.19777  Biso   1.000  C
  C86      1.0000 0.07023  0.36600  0.36600  Biso   1.000  C
  C87      1.0000 0.19777  0.36600  0.07023  Biso   1.000  C
  C88      1.0000 0.36600  0.07023  0.36600  Biso   1.000  C
  C89      1.0000 0.36600  0.19777  0.36600  Biso   1.000  C
  C90      1.0000 0.07023  0.36600  0.19777  Biso   1.000  C
  C91      1.0000 0.19777  0.07023  0.36600  Biso   1.000  C
  C92      1.0000 0.36600  0.36600  0.19777  Biso   1.000  C
  C93      1.0000 0.36600  0.36600  0.07023  Biso   1.000  C
  C94      1.0000 0.07023  0.19777  0.36600  Biso   1.000  C
  C95      1.0000 0.63400  0.80223  0.63400  Biso   1.000  C
  C96      1.0000 0.80223  0.63400  0.92977  Biso   1.000  C
  C97      1.0000 0.92977  0.63400  0.80223  Biso   1.000  C
  C98      1.0000 0.63400  0.92977  0.63400  Biso   1.000  C
  C99      1.0000 0.63400  0.80223  0.92977  Biso   1.000  C
  C100     1.0000 0.92977  0.63400  0.63400  Biso   1.000  C
  C101     1.0000 0.80223  0.63400  0.63400  Biso   1.000  C
  C102     1.0000 0.63400  0.92977  0.80223  Biso   1.000  C
  C103     1.0000 0.92977  0.80223  0.63400  Biso   1.000  C
  C104     1.0000 0.63400  0.63400  0.80223  Biso   1.000  C
  C105     1.0000 0.63400  0.63400  0.92977  Biso   1.000  C
  C106     1.0000 0.80223  0.92977  0.63400  Biso   1.000  C
  O1       1.0000 0.17208  0.97297  0.87104  Biso   1.000  O
  O2       1.0000 0.58559  0.38647  0.45758  Biso   1.000  O
  O3       1.0000 0.41151  0.56055  0.45758  Biso   1.000  O
  O4       1.0000 0.99799  0.14705  0.87104  Biso   1.000  O
  O5       1.0000 0.99780  0.97277  0.04528  Biso   1.000  O
  O6       1.0000 0.99793  0.97290  0.87083  Biso   1.000  O
  O7       1.0000 0.58579  0.56075  0.28334  Biso   1.000  O
  O8       1.0000 0.58566  0.56062  0.45779  Biso   1.000  O
  O9       1.0000 0.83554  0.33126  0.01223  Biso   1.000  O
  O10      1.0000 0.83242  0.11390  0.22582  Biso   1.000  O
  O11      1.0000 0.83915  0.32928  0.71016  Biso   1.000  O
  O12      1.0000 0.83864  0.11273  0.70486  Biso   1.000  O
  O13      1.0000 0.35542  0.11333  0.71195  Biso   1.000  O
  O14      1.0000 0.22728  0.72302  0.31639  Biso   1.000  O
  O15      1.0000 0.44466  0.72613  0.10280  Biso   1.000  O
  O16      1.0000 0.22926  0.71941  0.61846  Biso   1.000  O
  O17      1.0000 0.44583  0.71991  0.62375  Biso   1.000  O
  O18      1.0000 0.44522  0.20314  0.61666  Biso   1.000  O
  O19      1.0000 0.74805  0.20226  0.31639  Biso   1.000  O
  O20      1.0000 0.75117  0.41961  0.10280  Biso   1.000  O
  O21      1.0000 0.74444  0.20424  0.61846  Biso   1.000  O
  O22      1.0000 0.74495  0.42078  0.62375  Biso   1.000  O
  O23      1.0000 0.22817  0.42019  0.61666  Biso   1.000  O
  O24      1.0000 0.35630  0.81050  0.01223  Biso   1.000  O
  O25      1.0000 0.13893  0.80739  0.22582  Biso   1.000  O
  O26      1.0000 0.35433  0.81411  0.71016  Biso   1.000  O
  O27      1.0000 0.13776  0.81361  0.70486  Biso   1.000  O
  O28      1.0000 0.13837  0.33038  0.71195  Biso   1.000  O
  O29      1.0000 0.83683  0.81180  0.01153  Biso   1.000  O
  O30      1.0000 0.83412  0.80909  0.22972  Biso   1.000  O
  O31      1.0000 0.74676  0.72172  0.31709  Biso   1.000  O
  O32      1.0000 0.74947  0.72443  0.09890  Biso   1.000  O
  O33      1.0000 0.90342  0.15675  0.05087  Biso   1.000  O
  O34      1.0000 0.84471  0.21365  0.11118  Biso   1.000  O
  O35      1.0000 0.81866  0.30480  0.07444  Biso   1.000  O
  O36      1.0000 0.81685  0.17601  0.20026  Biso   1.000  O
  O37      1.0000 0.90383  0.15556  0.77466  Biso   1.000  O
  O38      1.0000 0.84802  0.21118  0.71784  Biso   1.000  O
  O39      1.0000 0.82028  0.30362  0.69268  Biso   1.000  O
  O40      1.0000 0.81987  0.17464  0.68929  Biso   1.000  O
  O41      1.0000 0.32916  0.17534  0.69248  Biso   1.000  O
  O42      1.0000 0.40182  0.65513  0.27775  Biso   1.000  O
  O43      1.0000 0.34491  0.71384  0.21743  Biso   1.000  O
  O44      1.0000 0.25374  0.73990  0.25418  Biso   1.000  O
  O45      1.0000 0.38256  0.74170  0.12836  Biso   1.000  O
  O46      1.0000 0.40300  0.65472  0.55395  Biso   1.000  O
  O47      1.0000 0.34739  0.71053  0.61077  Biso   1.000  O
  O48      1.0000 0.25492  0.73828  0.63594  Biso   1.000  O
  O49      1.0000 0.38392  0.73868  0.63933  Biso   1.000  O
  O50      1.0000 0.38322  0.22940  0.63614  Biso   1.000  O
  O51      1.0000 0.68017  0.37677  0.27775  Biso   1.000  O
  O52      1.0000 0.73888  0.31987  0.21743  Biso   1.000  O
  O53      1.0000 0.76493  0.22872  0.25418  Biso   1.000  O
  O54      1.0000 0.76674  0.35751  0.12836  Biso   1.000  O
  O55      1.0000 0.67976  0.37796  0.55395  Biso   1.000  O
  O56      1.0000 0.73556  0.32234  0.61077  Biso   1.000  O
  O57      1.0000 0.76331  0.22990  0.63594  Biso   1.000  O
  O58      1.0000 0.76372  0.35888  0.63933  Biso   1.000  O
  O59      1.0000 0.25442  0.35818  0.63614  Biso   1.000  O
  O60      1.0000 0.18177  0.87839  0.05087  Biso   1.000  O
  O61      1.0000 0.23868  0.81968  0.11118  Biso   1.000  O
  O62      1.0000 0.32984  0.79362  0.07444  Biso   1.000  O
  O63      1.0000 0.20103  0.79182  0.20026  Biso   1.000  O
  O64      1.0000 0.18059  0.87880  0.77466  Biso   1.000  O
  O65      1.0000 0.23620  0.82299  0.71784  Biso   1.000  O
  O66      1.0000 0.32867  0.79524  0.69268  Biso   1.000  O
  O67      1.0000 0.19966  0.79484  0.68929  Biso   1.000  O
  O68      1.0000 0.20037  0.30412  0.69248  Biso   1.000  O
  O69      1.0000 0.90172  0.87669  0.05746  Biso   1.000  O
  O70      1.0000 0.84571  0.82068  0.11039  Biso   1.000  O
  O71      1.0000 0.81915  0.79412  0.07344  Biso   1.000  O
  O72      1.0000 0.81675  0.79172  0.20225  Biso   1.000  O
  O73      1.0000 0.17769  0.15267  0.77986  Biso   1.000  O
  O74      1.0000 0.23780  0.21277  0.71794  Biso   1.000  O
  O75      1.0000 0.68187  0.65683  0.27116  Biso   1.000  O
  O76      1.0000 0.73788  0.71284  0.21823  Biso   1.000  O
  O77      1.0000 0.76443  0.73940  0.25518  Biso   1.000  O
  O78      1.0000 0.76684  0.74180  0.12636  Biso   1.000  O
  O79      1.0000 0.40590  0.38085  0.54876  Biso   1.000  O
  O80      1.0000 0.34579  0.32074  0.61067  Biso   1.000  O
  O81      1.0000 0.92348  0.07118  0.09431  Biso   1.000  O
  O82      1.0000 0.92588  0.19719  0.96829  Biso   1.000  O
  O83      1.0000 0.92320  0.07010  0.79993  Biso   1.000  O
  O84      1.0000 0.92540  0.19570  0.79713  Biso   1.000  O
  O85      1.0000 0.22002  0.06980  0.79943  Biso   1.000  O
  O86      1.0000 0.48738  0.63506  0.23431  Biso   1.000  O
  O87      1.0000 0.36138  0.63266  0.36033  Biso   1.000  O
  O88      1.0000 0.48846  0.63535  0.52869  Biso   1.000  O
  O89      1.0000 0.36287  0.63315  0.53149  Biso   1.000  O
  O90      1.0000 0.48877  0.33852  0.52919  Biso   1.000  O
  O91      1.0000 0.66011  0.46234  0.23431  Biso   1.000  O
  O92      1.0000 0.65770  0.33633  0.36033  Biso   1.000  O
  O93      1.0000 0.66039  0.46342  0.52869  Biso   1.000  O
  O94      1.0000 0.65819  0.33782  0.53149  Biso   1.000  O
  O95      1.0000 0.36357  0.46372  0.52919  Biso   1.000  O
  O96      1.0000 0.09621  0.89845  0.09431  Biso   1.000  O
  O97      1.0000 0.22221  0.90086  0.96829  Biso   1.000  O
  O98      1.0000 0.09512  0.89817  0.79993  Biso   1.000  O
  O99      1.0000 0.22072  0.90037  0.79713  Biso   1.000  O
  O100     1.0000 0.09482  0.19500  0.79943  Biso   1.000  O
  O101     1.0000 0.04130  0.01628  0.91486  Biso   1.000  O
  O102     1.0000 0.92488  0.89985  0.09331  Biso   1.000  O
  O103     1.0000 0.92329  0.89826  0.97298  Biso   1.000  O
  O104     1.0000 0.54228  0.51724  0.41375  Biso   1.000  O
  O105     1.0000 0.65871  0.63367  0.23531  Biso   1.000  O
  O106     1.0000 0.66030  0.63526  0.35564  Biso   1.000  O
