data_image0
_cell_length_a       18.266
_cell_length_b       18.266
_cell_length_c       18.266
_cell_angle_alpha    60
_cell_angle_beta     60
_cell_angle_gamma    60

_symmetry_space_group_name_H-M    "P 1"
_symmetry_int_tables_number       1

loop_
  _symmetry_equiv_pos_as_xyz
  'x, y, z'

loop_
  _atom_site_label
  _atom_site_occupancy
  _atom_site_fract_x
  _atom_site_fract_y
  _atom_site_fract_z
  _atom_site_thermal_displace_type
  _atom_site_B_iso_or_equiv
  _atom_site_type_symbol
  Zn1      1.0000 0.29338  0.29338  0.29338  Biso   1.000  Zn
  Zn2      1.0000 0.29338  0.29338  0.11986  Biso   1.000  Zn
  Zn3      1.0000 0.29338  0.11986  0.29338  Biso   1.000  Zn
  Zn4      1.0000 0.11986  0.29338  0.29338  Biso   1.000  Zn
  Zn5      1.0000 0.70662  0.70662  0.70662  Biso   1.000  Zn
  Zn6      1.0000 0.70662  0.70662  0.88014  Biso   1.000  Zn
  Zn7      1.0000 0.88014  0.70662  0.70662  Biso   1.000  Zn
  Zn8      1.0000 0.70662  0.88014  0.70662  Biso   1.000  Zn
  H1       1.0000 0.15460  0.45520  0.45520  Biso   1.000  H
  H2       1.0000 0.45520  0.15460  0.93500  Biso   1.000  H
  H3       1.0000 0.45520  0.93500  0.15460  Biso   1.000  H
  H4       1.0000 0.93500  0.45520  0.45520  Biso   1.000  H
  H5       1.0000 0.15460  0.45520  0.93500  Biso   1.000  H
  H6       1.0000 0.45520  0.93500  0.45520  Biso   1.000  H
  H7       1.0000 0.45520  0.15460  0.45520  Biso   1.000  H
  H8       1.0000 0.93500  0.45520  0.15460  Biso   1.000  H
  H9       1.0000 0.15460  0.93500  0.45520  Biso   1.000  H
  H10      1.0000 0.45520  0.45520  0.15460  Biso   1.000  H
  H11      1.0000 0.45520  0.45520  0.93500  Biso   1.000  H
  H12      1.0000 0.93500  0.15460  0.45520  Biso   1.000  H
  H13      1.0000 0.54480  0.84540  0.54480  Biso   1.000  H
  H14      1.0000 0.84540  0.54480  0.06500  Biso   1.000  H
  H15      1.0000 0.06500  0.54480  0.84540  Biso   1.000  H
  H16      1.0000 0.54480  0.06500  0.54480  Biso   1.000  H
  H17      1.0000 0.54480  0.84540  0.06500  Biso   1.000  H
  H18      1.0000 0.06500  0.54480  0.54480  Biso   1.000  H
  H19      1.0000 0.84540  0.54480  0.54480  Biso   1.000  H
  H20      1.0000 0.54480  0.06500  0.84540  Biso   1.000  H
  H21      1.0000 0.06500  0.84540  0.54480  Biso   1.000  H
  H22      1.0000 0.54480  0.54480  0.84540  Biso   1.000  H
  H23      1.0000 0.54480  0.54480  0.06500  Biso   1.000  H
  H24      1.0000 0.84540  0.06500  0.54480  Biso   1.000  H
  C1       1.0000 0.09270  0.47310  0.47310  Biso   1.000  C
  C2       1.0000 0.47310  0.09270  0.96110  Biso   1.000  C
  C3       1.0000 0.47310  0.96110  0.09270  Biso   1.000  C
  C4       1.0000 0.96110  0.47310  0.47310  Biso   1.000  C
  C5       1.0000 0.09270  0.47310  0.96110  Biso   1.000  C
  C6       1.0000 0.47310  0.96110  0.47310  Biso   1.000  C
  C7       1.0000 0.47310  0.09270  0.47310  Biso   1.000  C
  C8       1.0000 0.96110  0.47310  0.09270  Biso   1.000  C
  C9       1.0000 0.09270  0.96110  0.47310  Biso   1.000  C
  C10      1.0000 0.47310  0.47310  0.09270  Biso   1.000  C
  C11      1.0000 0.47310  0.47310  0.96110  Biso   1.000  C
  C12      1.0000 0.96110  0.09270  0.47310  Biso   1.000  C
  C13      1.0000 0.52690  0.90730  0.52690  Biso   1.000  C
  C14      1.0000 0.90730  0.52690  0.03890  Biso   1.000  C
  C15      1.0000 0.03890  0.52690  0.90730  Biso   1.000  C
  C16      1.0000 0.52690  0.03890  0.52690  Biso   1.000  C
  C17      1.0000 0.52690  0.90730  0.03890  Biso   1.000  C
  C18      1.0000 0.03890  0.52690  0.52690  Biso   1.000  C
  C19      1.0000 0.90730  0.52690  0.52690  Biso   1.000  C
  C20      1.0000 0.52690  0.03890  0.90730  Biso   1.000  C
  C21      1.0000 0.03890  0.90730  0.52690  Biso   1.000  C
  C22      1.0000 0.52690  0.52690  0.90730  Biso   1.000  C
  C23      1.0000 0.52690  0.52690  0.03890  Biso   1.000  C
  C24      1.0000 0.90730  0.03890  0.52690  Biso   1.000  C
  C25      1.0000 0.11130  0.38870  0.38870  Biso   1.000  C
  C26      1.0000 0.05380  0.44620  0.44620  Biso   1.000  C
  C27      1.0000 0.38870  0.11130  0.11130  Biso   1.000  C
  C28      1.0000 0.44620  0.05380  0.05380  Biso   1.000  C
  C29      1.0000 0.11130  0.38870  0.11130  Biso   1.000  C
  C30      1.0000 0.05380  0.44620  0.05380  Biso   1.000  C
  C31      1.0000 0.38870  0.11130  0.38870  Biso   1.000  C
  C32      1.0000 0.44620  0.05380  0.44620  Biso   1.000  C
  C33      1.0000 0.11130  0.11130  0.38870  Biso   1.000  C
  C34      1.0000 0.05380  0.05380  0.44620  Biso   1.000  C
  C35      1.0000 0.38870  0.38870  0.11130  Biso   1.000  C
  C36      1.0000 0.44620  0.44620  0.05380  Biso   1.000  C
  C37      1.0000 0.61130  0.88870  0.61130  Biso   1.000  C
  C38      1.0000 0.55380  0.94620  0.55380  Biso   1.000  C
  C39      1.0000 0.88870  0.61130  0.88870  Biso   1.000  C
  C40      1.0000 0.94620  0.55380  0.94620  Biso   1.000  C
  C41      1.0000 0.61130  0.88870  0.88870  Biso   1.000  C
  C42      1.0000 0.55380  0.94620  0.94620  Biso   1.000  C
  C43      1.0000 0.88870  0.61130  0.61130  Biso   1.000  C
  C44      1.0000 0.94620  0.55380  0.55380  Biso   1.000  C
  C45      1.0000 0.88870  0.88870  0.61130  Biso   1.000  C
  C46      1.0000 0.94620  0.94620  0.55380  Biso   1.000  C
  C47      1.0000 0.61130  0.61130  0.88870  Biso   1.000  C
  C48      1.0000 0.55380  0.55380  0.94620  Biso   1.000  C
  O1       1.0000 0.25000  0.25000  0.25000  Biso   1.000  O
  O2       1.0000 0.75000  0.75000  0.75000  Biso   1.000  O
  O3       1.0000 0.19777  0.36600  0.36600  Biso   1.000  O
  O4       1.0000 0.36600  0.19777  0.07023  Biso   1.000  O
  O5       1.0000 0.36600  0.07023  0.19777  Biso   1.000  O
  O6       1.0000 0.07023  0.36600  0.36600  Biso   1.000  O
  O7       1.0000 0.19777  0.36600  0.07023  Biso   1.000  O
  O8       1.0000 0.36600  0.07023  0.36600  Biso   1.000  O
  O9       1.0000 0.36600  0.19777  0.36600  Biso   1.000  O
  O10      1.0000 0.07023  0.36600  0.19777  Biso   1.000  O
  O11      1.0000 0.19777  0.07023  0.36600  Biso   1.000  O
  O12      1.0000 0.36600  0.36600  0.19777  Biso   1.000  O
  O13      1.0000 0.36600  0.36600  0.07023  Biso   1.000  O
  O14      1.0000 0.07023  0.19777  0.36600  Biso   1.000  O
  O15      1.0000 0.63400  0.80223  0.63400  Biso   1.000  O
  O16      1.0000 0.80223  0.63400  0.92977  Biso   1.000  O
  O17      1.0000 0.92977  0.63400  0.80223  Biso   1.000  O
  O18      1.0000 0.63400  0.92977  0.63400  Biso   1.000  O
  O19      1.0000 0.63400  0.80223  0.92977  Biso   1.000  O
  O20      1.0000 0.92977  0.63400  0.63400  Biso   1.000  O
  O21      1.0000 0.80223  0.63400  0.63400  Biso   1.000  O
  O22      1.0000 0.63400  0.92977  0.80223  Biso   1.000  O
  O23      1.0000 0.92977  0.80223  0.63400  Biso   1.000  O
  O24      1.0000 0.63400  0.63400  0.80223  Biso   1.000  O
  O25      1.0000 0.63400  0.63400  0.92977  Biso   1.000  O
  O26      1.0000 0.80223  0.92977  0.63400  Biso   1.000  O
  Zn9      1.0000 0.50203  0.51955  0.33470  Biso   1.000  Zn
  Zn10     1.0000 0.50203  0.51955  0.50840  Biso   1.000  Zn
  Zn11     1.0000 0.32834  0.51955  0.50840  Biso   1.000  Zn
  Zn12     1.0000 0.50203  0.34585  0.50840  Biso   1.000  Zn
  Zn13     1.0000 0.91355  0.93105  0.09359  Biso   1.000  Zn
  Zn14     1.0000 0.91355  0.93105  0.91990  Biso   1.000  Zn
  Zn15     1.0000 0.91355  0.10475  0.91990  Biso   1.000  Zn
  Zn16     1.0000 0.08725  0.93105  0.91990  Biso   1.000  Zn
  H25      1.0000 0.66394  0.68145  0.14911  Biso   1.000  H
  H26      1.0000 0.66394  0.68145  0.36689  Biso   1.000  H
  H27      1.0000 0.14276  0.37805  0.67029  Biso   1.000  H
  H28      1.0000 0.36054  0.16026  0.67029  Biso   1.000  H
  H29      1.0000 0.66394  0.16026  0.36689  Biso   1.000  H
  H30      1.0000 0.66394  0.37805  0.14911  Biso   1.000  H
  H31      1.0000 0.14276  0.68145  0.67029  Biso   1.000  H
  H32      1.0000 0.36054  0.68145  0.67029  Biso   1.000  H
  H33      1.0000 0.66394  0.37805  0.67029  Biso   1.000  H
  H34      1.0000 0.66394  0.16026  0.67029  Biso   1.000  H
  H35      1.0000 0.14276  0.68145  0.36689  Biso   1.000  H
  H36      1.0000 0.36054  0.68145  0.14911  Biso   1.000  H
  H37      1.0000 0.75165  0.76916  0.27918  Biso   1.000  H
  H38      1.0000 0.75165  0.76916  0.06140  Biso   1.000  H
  H39      1.0000 0.05505  0.29034  0.75800  Biso   1.000  H
  H40      1.0000 0.27283  0.07255  0.75800  Biso   1.000  H
  H41      1.0000 0.27283  0.76916  0.06140  Biso   1.000  H
  H42      1.0000 0.05505  0.76916  0.27918  Biso   1.000  H
  H43      1.0000 0.75165  0.29034  0.75800  Biso   1.000  H
  H44      1.0000 0.75165  0.07255  0.75800  Biso   1.000  H
  H45      1.0000 0.05505  0.76916  0.75800  Biso   1.000  H
  H46      1.0000 0.27283  0.76916  0.75800  Biso   1.000  H
  H47      1.0000 0.75165  0.29034  0.06140  Biso   1.000  H
  H48      1.0000 0.75165  0.07255  0.27918  Biso   1.000  H
  C49      1.0000 0.68148  0.69899  0.17582  Biso   1.000  C
  C50      1.0000 0.68148  0.69899  0.30510  Biso   1.000  C
  C51      1.0000 0.16947  0.31625  0.68783  Biso   1.000  C
  C52      1.0000 0.29874  0.18697  0.68783  Biso   1.000  C
  C53      1.0000 0.68148  0.18697  0.30510  Biso   1.000  C
  C54      1.0000 0.68148  0.31625  0.17582  Biso   1.000  C
  C55      1.0000 0.16947  0.69899  0.68783  Biso   1.000  C
  C56      1.0000 0.29874  0.69899  0.68783  Biso   1.000  C
  C57      1.0000 0.68148  0.31625  0.68783  Biso   1.000  C
  C58      1.0000 0.68148  0.18697  0.68783  Biso   1.000  C
  C59      1.0000 0.16947  0.69899  0.30510  Biso   1.000  C
  C60      1.0000 0.29874  0.69899  0.17582  Biso   1.000  C
  C61      1.0000 0.73411  0.75161  0.25247  Biso   1.000  C
  C62      1.0000 0.73411  0.75161  0.12320  Biso   1.000  C
  C63      1.0000 0.11684  0.26363  0.74046  Biso   1.000  C
  C64      1.0000 0.24612  0.13435  0.74046  Biso   1.000  C
  C65      1.0000 0.24612  0.75161  0.12320  Biso   1.000  C
  C66      1.0000 0.11684  0.75161  0.25247  Biso   1.000  C
  C67      1.0000 0.73411  0.26363  0.74046  Biso   1.000  C
  C68      1.0000 0.73411  0.13435  0.74046  Biso   1.000  C
  C69      1.0000 0.11684  0.75161  0.74046  Biso   1.000  C
  C70      1.0000 0.24612  0.75161  0.74046  Biso   1.000  C
  C71      1.0000 0.73411  0.26363  0.12320  Biso   1.000  C
  C72      1.0000 0.73411  0.13435  0.25247  Biso   1.000  C
  C73      1.0000 0.59676  0.61427  0.32683  Biso   1.000  C
  C74      1.0000 0.65427  0.67178  0.26932  Biso   1.000  C
  C75      1.0000 0.32047  0.33798  0.60311  Biso   1.000  C
  C76      1.0000 0.26296  0.28047  0.66062  Biso   1.000  C
  C77      1.0000 0.59676  0.33798  0.32683  Biso   1.000  C
  C78      1.0000 0.65427  0.28047  0.26932  Biso   1.000  C
  C79      1.0000 0.32047  0.61427  0.60311  Biso   1.000  C
  C80      1.0000 0.26296  0.67178  0.66062  Biso   1.000  C
  C81      1.0000 0.59676  0.33798  0.60311  Biso   1.000  C
  C82      1.0000 0.65427  0.28047  0.66062  Biso   1.000  C
  C83      1.0000 0.32047  0.61427  0.32683  Biso   1.000  C
  C84      1.0000 0.26296  0.67178  0.26932  Biso   1.000  C
  C85      1.0000 0.81883  0.83633  0.10147  Biso   1.000  C
  C86      1.0000 0.76132  0.77882  0.15898  Biso   1.000  C
  C87      1.0000 0.09511  0.11262  0.82518  Biso   1.000  C
  C88      1.0000 0.15262  0.17013  0.76767  Biso   1.000  C
  C89      1.0000 0.09511  0.83633  0.10147  Biso   1.000  C
  C90      1.0000 0.15262  0.77882  0.15898  Biso   1.000  C
  C91      1.0000 0.81883  0.11262  0.82518  Biso   1.000  C
  C92      1.0000 0.76132  0.17013  0.76767  Biso   1.000  C
  C93      1.0000 0.09511  0.83633  0.82518  Biso   1.000  C
  C94      1.0000 0.15262  0.77882  0.76767  Biso   1.000  C
  C95      1.0000 0.81883  0.11262  0.10147  Biso   1.000  C
  C96      1.0000 0.76132  0.17013  0.15898  Biso   1.000  C
  O27      1.0000 0.45862  0.47612  0.46497  Biso   1.000  O
  O28      1.0000 0.95697  0.97448  0.96332  Biso   1.000  O
  O29      1.0000 0.57428  0.59179  0.28878  Biso   1.000  O
  O30      1.0000 0.57428  0.59179  0.40982  Biso   1.000  O
  O31      1.0000 0.28243  0.42098  0.58064  Biso   1.000  O
  O32      1.0000 0.40347  0.29994  0.58064  Biso   1.000  O
  O33      1.0000 0.57428  0.29994  0.40982  Biso   1.000  O
  O34      1.0000 0.57428  0.42098  0.28878  Biso   1.000  O
  O35      1.0000 0.28243  0.59179  0.58064  Biso   1.000  O
  O36      1.0000 0.40347  0.59179  0.58064  Biso   1.000  O
  O37      1.0000 0.57428  0.42098  0.58064  Biso   1.000  O
  O38      1.0000 0.57428  0.29994  0.58064  Biso   1.000  O
  O39      1.0000 0.28243  0.59179  0.40982  Biso   1.000  O
  O40      1.0000 0.40347  0.59179  0.28878  Biso   1.000  O
  O41      1.0000 0.84130  0.85881  0.13951  Biso   1.000  O
  O42      1.0000 0.84130  0.85881  0.01847  Biso   1.000  O
  O43      1.0000 0.01212  0.15066  0.84766  Biso   1.000  O
  O44      1.0000 0.13316  0.02962  0.84766  Biso   1.000  O
  O45      1.0000 0.13316  0.85881  0.01847  Biso   1.000  O
  O46      1.0000 0.01212  0.85881  0.13951  Biso   1.000  O
  O47      1.0000 0.84130  0.15066  0.84766  Biso   1.000  O
  O48      1.0000 0.84130  0.02962  0.84766  Biso   1.000  O
  O49      1.0000 0.01212  0.85881  0.84766  Biso   1.000  O
  O50      1.0000 0.13316  0.85881  0.84766  Biso   1.000  O
  O51      1.0000 0.84130  0.15066  0.01847  Biso   1.000  O
  O52      1.0000 0.84130  0.02962  0.13951  Biso   1.000  O
