data_image0
_cell_length_a       18.266
_cell_length_b       18.266
_cell_length_c       18.266
_cell_angle_alpha    60
_cell_angle_beta     60
_cell_angle_gamma    60

_symmetry_space_group_name_H-M    "P 1"
_symmetry_int_tables_number       1

loop_
  _symmetry_equiv_pos_as_xyz
  'x, y, z'

loop_
  _atom_site_label
  _atom_site_occupancy
  _atom_site_fract_x
  _atom_site_fract_y
  _atom_site_fract_z
  _atom_site_thermal_displace_type
  _atom_site_B_iso_or_equiv
  _atom_site_type_symbol
  Zn1      1.0000 0.29338  0.29338  0.29338  Biso   1.000  Zn
  Zn2      1.0000 0.29338  0.29338  0.11986  Biso   1.000  Zn
  Zn3      1.0000 0.29338  0.11986  0.29338  Biso   1.000  Zn
  Zn4      1.0000 0.11986  0.29338  0.29338  Biso   1.000  Zn
  Zn5      1.0000 0.70662  0.70662  0.70662  Biso   1.000  Zn
  Zn6      1.0000 0.70662  0.70662  0.88014  Biso   1.000  Zn
  Zn7      1.0000 0.88014  0.70662  0.70662  Biso   1.000  Zn
  Zn8      1.0000 0.70662  0.88014  0.70662  Biso   1.000  Zn
  H1       1.0000 0.15460  0.45520  0.45520  Biso   1.000  H
  H2       1.0000 0.45520  0.15460  0.93500  Biso   1.000  H
  H3       1.0000 0.45520  0.93500  0.15460  Biso   1.000  H
  H4       1.0000 0.93500  0.45520  0.45520  Biso   1.000  H
  H5       1.0000 0.15460  0.45520  0.93500  Biso   1.000  H
  H6       1.0000 0.45520  0.93500  0.45520  Biso   1.000  H
  H7       1.0000 0.45520  0.15460  0.45520  Biso   1.000  H
  H8       1.0000 0.93500  0.45520  0.15460  Biso   1.000  H
  H9       1.0000 0.15460  0.93500  0.45520  Biso   1.000  H
  H10      1.0000 0.45520  0.45520  0.15460  Biso   1.000  H
  H11      1.0000 0.45520  0.45520  0.93500  Biso   1.000  H
  H12      1.0000 0.93500  0.15460  0.45520  Biso   1.000  H
  H13      1.0000 0.54480  0.84540  0.54480  Biso   1.000  H
  H14      1.0000 0.84540  0.54480  0.06500  Biso   1.000  H
  H15      1.0000 0.06500  0.54480  0.84540  Biso   1.000  H
  H16      1.0000 0.54480  0.06500  0.54480  Biso   1.000  H
  H17      1.0000 0.54480  0.84540  0.06500  Biso   1.000  H
  H18      1.0000 0.06500  0.54480  0.54480  Biso   1.000  H
  H19      1.0000 0.84540  0.54480  0.54480  Biso   1.000  H
  H20      1.0000 0.54480  0.06500  0.84540  Biso   1.000  H
  H21      1.0000 0.06500  0.84540  0.54480  Biso   1.000  H
  H22      1.0000 0.54480  0.54480  0.84540  Biso   1.000  H
  H23      1.0000 0.54480  0.54480  0.06500  Biso   1.000  H
  H24      1.0000 0.84540  0.06500  0.54480  Biso   1.000  H
  C1       1.0000 0.09270  0.47310  0.47310  Biso   1.000  C
  C2       1.0000 0.47310  0.09270  0.96110  Biso   1.000  C
  C3       1.0000 0.47310  0.96110  0.09270  Biso   1.000  C
  C4       1.0000 0.96110  0.47310  0.47310  Biso   1.000  C
  C5       1.0000 0.09270  0.47310  0.96110  Biso   1.000  C
  C6       1.0000 0.47310  0.96110  0.47310  Biso   1.000  C
  C7       1.0000 0.47310  0.09270  0.47310  Biso   1.000  C
  C8       1.0000 0.96110  0.47310  0.09270  Biso   1.000  C
  C9       1.0000 0.09270  0.96110  0.47310  Biso   1.000  C
  C10      1.0000 0.47310  0.47310  0.09270  Biso   1.000  C
  C11      1.0000 0.47310  0.47310  0.96110  Biso   1.000  C
  C12      1.0000 0.96110  0.09270  0.47310  Biso   1.000  C
  C13      1.0000 0.52690  0.90730  0.52690  Biso   1.000  C
  C14      1.0000 0.90730  0.52690  0.03890  Biso   1.000  C
  C15      1.0000 0.03890  0.52690  0.90730  Biso   1.000  C
  C16      1.0000 0.52690  0.03890  0.52690  Biso   1.000  C
  C17      1.0000 0.52690  0.90730  0.03890  Biso   1.000  C
  C18      1.0000 0.03890  0.52690  0.52690  Biso   1.000  C
  C19      1.0000 0.90730  0.52690  0.52690  Biso   1.000  C
  C20      1.0000 0.52690  0.03890  0.90730  Biso   1.000  C
  C21      1.0000 0.03890  0.90730  0.52690  Biso   1.000  C
  C22      1.0000 0.52690  0.52690  0.90730  Biso   1.000  C
  C23      1.0000 0.52690  0.52690  0.03890  Biso   1.000  C
  C24      1.0000 0.90730  0.03890  0.52690  Biso   1.000  C
  C25      1.0000 0.11130  0.38870  0.38870  Biso   1.000  C
  C26      1.0000 0.05380  0.44620  0.44620  Biso   1.000  C
  C27      1.0000 0.38870  0.11130  0.11130  Biso   1.000  C
  C28      1.0000 0.44620  0.05380  0.05380  Biso   1.000  C
  C29      1.0000 0.11130  0.38870  0.11130  Biso   1.000  C
  C30      1.0000 0.05380  0.44620  0.05380  Biso   1.000  C
  C31      1.0000 0.38870  0.11130  0.38870  Biso   1.000  C
  C32      1.0000 0.44620  0.05380  0.44620  Biso   1.000  C
  C33      1.0000 0.11130  0.11130  0.38870  Biso   1.000  C
  C34      1.0000 0.05380  0.05380  0.44620  Biso   1.000  C
  C35      1.0000 0.38870  0.38870  0.11130  Biso   1.000  C
  C36      1.0000 0.44620  0.44620  0.05380  Biso   1.000  C
  C37      1.0000 0.61130  0.88870  0.61130  Biso   1.000  C
  C38      1.0000 0.55380  0.94620  0.55380  Biso   1.000  C
  C39      1.0000 0.88870  0.61130  0.88870  Biso   1.000  C
  C40      1.0000 0.94620  0.55380  0.94620  Biso   1.000  C
  C41      1.0000 0.61130  0.88870  0.88870  Biso   1.000  C
  C42      1.0000 0.55380  0.94620  0.94620  Biso   1.000  C
  C43      1.0000 0.88870  0.61130  0.61130  Biso   1.000  C
  C44      1.0000 0.94620  0.55380  0.55380  Biso   1.000  C
  C45      1.0000 0.88870  0.88870  0.61130  Biso   1.000  C
  C46      1.0000 0.94620  0.94620  0.55380  Biso   1.000  C
  C47      1.0000 0.61130  0.61130  0.88870  Biso   1.000  C
  C48      1.0000 0.55380  0.55380  0.94620  Biso   1.000  C
  O1       1.0000 0.25000  0.25000  0.25000  Biso   1.000  O
  O2       1.0000 0.75000  0.75000  0.75000  Biso   1.000  O
  O3       1.0000 0.19777  0.36600  0.36600  Biso   1.000  O
  O4       1.0000 0.36600  0.19777  0.07023  Biso   1.000  O
  O5       1.0000 0.36600  0.07023  0.19777  Biso   1.000  O
  O6       1.0000 0.07023  0.36600  0.36600  Biso   1.000  O
  O7       1.0000 0.19777  0.36600  0.07023  Biso   1.000  O
  O8       1.0000 0.36600  0.07023  0.36600  Biso   1.000  O
  O9       1.0000 0.36600  0.19777  0.36600  Biso   1.000  O
  O10      1.0000 0.07023  0.36600  0.19777  Biso   1.000  O
  O11      1.0000 0.19777  0.07023  0.36600  Biso   1.000  O
  O12      1.0000 0.36600  0.36600  0.19777  Biso   1.000  O
  O13      1.0000 0.36600  0.36600  0.07023  Biso   1.000  O
  O14      1.0000 0.07023  0.19777  0.36600  Biso   1.000  O
  O15      1.0000 0.63400  0.80223  0.63400  Biso   1.000  O
  O16      1.0000 0.80223  0.63400  0.92977  Biso   1.000  O
  O17      1.0000 0.92977  0.63400  0.80223  Biso   1.000  O
  O18      1.0000 0.63400  0.92977  0.63400  Biso   1.000  O
  O19      1.0000 0.63400  0.80223  0.92977  Biso   1.000  O
  O20      1.0000 0.92977  0.63400  0.63400  Biso   1.000  O
  O21      1.0000 0.80223  0.63400  0.63400  Biso   1.000  O
  O22      1.0000 0.63400  0.92977  0.80223  Biso   1.000  O
  O23      1.0000 0.92977  0.80223  0.63400  Biso   1.000  O
  O24      1.0000 0.63400  0.63400  0.80223  Biso   1.000  O
  O25      1.0000 0.63400  0.63400  0.92977  Biso   1.000  O
  O26      1.0000 0.80223  0.92977  0.63400  Biso   1.000  O
  Zn9      1.0000 0.59348  0.07907  0.72034  Biso   1.000  Zn
  Zn10     1.0000 0.59348  0.25314  0.72034  Biso   1.000  Zn
  Zn11     1.0000 0.41940  0.25314  0.72034  Biso   1.000  Zn
  Zn12     1.0000 0.59348  0.25314  0.54626  Biso   1.000  Zn
  Zn13     1.0000 0.00923  0.66517  0.13236  Biso   1.000  Zn
  Zn14     1.0000 0.00923  0.83924  0.13236  Biso   1.000  Zn
  Zn15     1.0000 0.18330  0.66517  0.13236  Biso   1.000  Zn
  Zn16     1.0000 0.00923  0.66517  0.30644  Biso   1.000  Zn
  H25      1.0000 0.45518  0.89363  0.88220  Biso   1.000  H
  H26      1.0000 0.75534  0.41500  0.58204  Biso   1.000  H
  H27      1.0000 0.23397  0.11484  0.88220  Biso   1.000  H
  H28      1.0000 0.75534  0.41500  0.36083  Biso   1.000  H
  H29      1.0000 0.23397  0.41500  0.58204  Biso   1.000  H
  H30      1.0000 0.75534  0.11484  0.88220  Biso   1.000  H
  H31      1.0000 0.45518  0.41500  0.36083  Biso   1.000  H
  H32      1.0000 0.75534  0.89363  0.88220  Biso   1.000  H
  H33      1.0000 0.75534  0.11484  0.36083  Biso   1.000  H
  H34      1.0000 0.45518  0.41500  0.88220  Biso   1.000  H
  H35      1.0000 0.75534  0.89363  0.58204  Biso   1.000  H
  H36      1.0000 0.23397  0.41500  0.88220  Biso   1.000  H
  H37      1.0000 0.14752  0.50331  0.97050  Biso   1.000  H
  H38      1.0000 0.84737  0.02468  0.27066  Biso   1.000  H
  H39      1.0000 0.36874  0.50331  0.97050  Biso   1.000  H
  H40      1.0000 0.84737  0.80346  0.49187  Biso   1.000  H
  H41      1.0000 0.36874  0.50331  0.27066  Biso   1.000  H
  H42      1.0000 0.84737  0.02468  0.97050  Biso   1.000  H
  H43      1.0000 0.14752  0.50331  0.49187  Biso   1.000  H
  H44      1.0000 0.84737  0.80346  0.97050  Biso   1.000  H
  H45      1.0000 0.84737  0.50331  0.49187  Biso   1.000  H
  H46      1.0000 0.14752  0.02468  0.97050  Biso   1.000  H
  H47      1.0000 0.84737  0.50331  0.27066  Biso   1.000  H
  H48      1.0000 0.36874  0.80346  0.97050  Biso   1.000  H
  C49      1.0000 0.39170  0.92044  0.90053  Biso   1.000  C
  C50      1.0000 0.77367  0.43334  0.51856  Biso   1.000  C
  C51      1.0000 0.26078  0.05137  0.90053  Biso   1.000  C
  C52      1.0000 0.77367  0.43334  0.38764  Biso   1.000  C
  C53      1.0000 0.26078  0.43334  0.51856  Biso   1.000  C
  C54      1.0000 0.77367  0.05137  0.90053  Biso   1.000  C
  C55      1.0000 0.39170  0.43334  0.38764  Biso   1.000  C
  C56      1.0000 0.77367  0.92044  0.90053  Biso   1.000  C
  C57      1.0000 0.77367  0.05137  0.38764  Biso   1.000  C
  C58      1.0000 0.39170  0.43334  0.90053  Biso   1.000  C
  C59      1.0000 0.77367  0.92044  0.51856  Biso   1.000  C
  C60      1.0000 0.26078  0.43334  0.90053  Biso   1.000  C
  C61      1.0000 0.21100  0.48497  0.95217  Biso   1.000  C
  C62      1.0000 0.82903  0.99787  0.33414  Biso   1.000  C
  C63      1.0000 0.34193  0.48497  0.95217  Biso   1.000  C
  C64      1.0000 0.82903  0.86694  0.46506  Biso   1.000  C
  C65      1.0000 0.34193  0.48497  0.33414  Biso   1.000  C
  C66      1.0000 0.82903  0.99787  0.95217  Biso   1.000  C
  C67      1.0000 0.21100  0.48497  0.46506  Biso   1.000  C
  C68      1.0000 0.82903  0.86694  0.95217  Biso   1.000  C
  C69      1.0000 0.82903  0.48497  0.46506  Biso   1.000  C
  C70      1.0000 0.21100  0.99787  0.95217  Biso   1.000  C
  C71      1.0000 0.82903  0.48497  0.33414  Biso   1.000  C
  C72      1.0000 0.34193  0.86694  0.95217  Biso   1.000  C
  C73      1.0000 0.41118  0.07084  0.81559  Biso   1.000  C
  C74      1.0000 0.35331  0.01297  0.87346  Biso   1.000  C
  C75      1.0000 0.68873  0.34840  0.53804  Biso   1.000  C
  C76      1.0000 0.74660  0.40627  0.48017  Biso   1.000  C
  C77      1.0000 0.41118  0.34840  0.53804  Biso   1.000  C
  C78      1.0000 0.35331  0.40627  0.48017  Biso   1.000  C
  C79      1.0000 0.68873  0.07084  0.81559  Biso   1.000  C
  C80      1.0000 0.74660  0.01297  0.87346  Biso   1.000  C
  C81      1.0000 0.68873  0.07084  0.53804  Biso   1.000  C
  C82      1.0000 0.74660  0.01297  0.48017  Biso   1.000  C
  C83      1.0000 0.41118  0.34840  0.81559  Biso   1.000  C
  C84      1.0000 0.35331  0.40627  0.87346  Biso   1.000  C
  C85      1.0000 0.19153  0.56991  0.03711  Biso   1.000  C
  C86      1.0000 0.24939  0.51204  0.97924  Biso   1.000  C
  C87      1.0000 0.91397  0.84747  0.31466  Biso   1.000  C
  C88      1.0000 0.85610  0.90533  0.37253  Biso   1.000  C
  C89      1.0000 0.19153  0.56991  0.31466  Biso   1.000  C
  C90      1.0000 0.24939  0.51204  0.37253  Biso   1.000  C
  C91      1.0000 0.91397  0.84747  0.03711  Biso   1.000  C
  C92      1.0000 0.85610  0.90533  0.97924  Biso   1.000  C
  C93      1.0000 0.91397  0.56991  0.31466  Biso   1.000  C
  C94      1.0000 0.85610  0.51204  0.37253  Biso   1.000  C
  C95      1.0000 0.19153  0.84747  0.03711  Biso   1.000  C
  C96      1.0000 0.24939  0.90533  0.97924  Biso   1.000  C
  O27      1.0000 0.54995  0.20962  0.67682  Biso   1.000  O
  O28      1.0000 0.05275  0.70869  0.17588  Biso   1.000  O
  O29      1.0000 0.49482  0.03178  0.79330  Biso   1.000  O
  O30      1.0000 0.66644  0.32611  0.62168  Biso   1.000  O
  O31      1.0000 0.37211  0.15449  0.79330  Biso   1.000  O
  O32      1.0000 0.66644  0.32611  0.49898  Biso   1.000  O
  O33      1.0000 0.37211  0.32611  0.62168  Biso   1.000  O
  O34      1.0000 0.66644  0.15449  0.79330  Biso   1.000  O
  O35      1.0000 0.49482  0.32611  0.49898  Biso   1.000  O
  O36      1.0000 0.66644  0.03178  0.79330  Biso   1.000  O
  O37      1.0000 0.66644  0.15449  0.49898  Biso   1.000  O
  O38      1.0000 0.49482  0.32611  0.79330  Biso   1.000  O
  O39      1.0000 0.66644  0.03178  0.62168  Biso   1.000  O
  O40      1.0000 0.37211  0.32611  0.79330  Biso   1.000  O
  O41      1.0000 0.10788  0.59220  0.05940  Biso   1.000  O
  O42      1.0000 0.93626  0.88653  0.23102  Biso   1.000  O
  O43      1.0000 0.23059  0.59220  0.05940  Biso   1.000  O
  O44      1.0000 0.93626  0.76382  0.35372  Biso   1.000  O
  O45      1.0000 0.23059  0.59220  0.23102  Biso   1.000  O
  O46      1.0000 0.93626  0.88653  0.05940  Biso   1.000  O
  O47      1.0000 0.10788  0.59220  0.35372  Biso   1.000  O
  O48      1.0000 0.93626  0.76382  0.05940  Biso   1.000  O
  O49      1.0000 0.93626  0.59220  0.35372  Biso   1.000  O
  O50      1.0000 0.10788  0.88653  0.05940  Biso   1.000  O
  O51      1.0000 0.93626  0.59220  0.23102  Biso   1.000  O
  O52      1.0000 0.23059  0.76382  0.05940  Biso   1.000  O
