data_image0
_cell_length_a       18.266
_cell_length_b       18.266
_cell_length_c       18.266
_cell_angle_alpha    60
_cell_angle_beta     60
_cell_angle_gamma    60

_symmetry_space_group_name_H-M    "P 1"
_symmetry_int_tables_number       1

loop_
  _symmetry_equiv_pos_as_xyz
  'x, y, z'

loop_
  _atom_site_label
  _atom_site_occupancy
  _atom_site_fract_x
  _atom_site_fract_y
  _atom_site_fract_z
  _atom_site_thermal_displace_type
  _atom_site_B_iso_or_equiv
  _atom_site_type_symbol
  Zn1      1.0000 0.29338  0.29338  0.29338  Biso   1.000  Zn
  Zn2      1.0000 0.29338  0.29338  0.11986  Biso   1.000  Zn
  Zn3      1.0000 0.29338  0.11986  0.29338  Biso   1.000  Zn
  Zn4      1.0000 0.11986  0.29338  0.29338  Biso   1.000  Zn
  Zn5      1.0000 0.70662  0.70662  0.70662  Biso   1.000  Zn
  Zn6      1.0000 0.70662  0.70662  0.88014  Biso   1.000  Zn
  Zn7      1.0000 0.88014  0.70662  0.70662  Biso   1.000  Zn
  Zn8      1.0000 0.70662  0.88014  0.70662  Biso   1.000  Zn
  H1       1.0000 0.15460  0.45520  0.45520  Biso   1.000  H
  H2       1.0000 0.45520  0.15460  0.93500  Biso   1.000  H
  H3       1.0000 0.45520  0.93500  0.15460  Biso   1.000  H
  H4       1.0000 0.93500  0.45520  0.45520  Biso   1.000  H
  H5       1.0000 0.15460  0.45520  0.93500  Biso   1.000  H
  H6       1.0000 0.45520  0.93500  0.45520  Biso   1.000  H
  H7       1.0000 0.45520  0.15460  0.45520  Biso   1.000  H
  H8       1.0000 0.93500  0.45520  0.15460  Biso   1.000  H
  H9       1.0000 0.15460  0.93500  0.45520  Biso   1.000  H
  H10      1.0000 0.45520  0.45520  0.15460  Biso   1.000  H
  H11      1.0000 0.45520  0.45520  0.93500  Biso   1.000  H
  H12      1.0000 0.93500  0.15460  0.45520  Biso   1.000  H
  H13      1.0000 0.54480  0.84540  0.54480  Biso   1.000  H
  H14      1.0000 0.84540  0.54480  0.06500  Biso   1.000  H
  H15      1.0000 0.06500  0.54480  0.84540  Biso   1.000  H
  H16      1.0000 0.54480  0.06500  0.54480  Biso   1.000  H
  H17      1.0000 0.54480  0.84540  0.06500  Biso   1.000  H
  H18      1.0000 0.06500  0.54480  0.54480  Biso   1.000  H
  H19      1.0000 0.84540  0.54480  0.54480  Biso   1.000  H
  H20      1.0000 0.54480  0.06500  0.84540  Biso   1.000  H
  H21      1.0000 0.06500  0.84540  0.54480  Biso   1.000  H
  H22      1.0000 0.54480  0.54480  0.84540  Biso   1.000  H
  H23      1.0000 0.54480  0.54480  0.06500  Biso   1.000  H
  H24      1.0000 0.84540  0.06500  0.54480  Biso   1.000  H
  C1       1.0000 0.09270  0.47310  0.47310  Biso   1.000  C
  C2       1.0000 0.47310  0.09270  0.96110  Biso   1.000  C
  C3       1.0000 0.47310  0.96110  0.09270  Biso   1.000  C
  C4       1.0000 0.96110  0.47310  0.47310  Biso   1.000  C
  C5       1.0000 0.09270  0.47310  0.96110  Biso   1.000  C
  C6       1.0000 0.47310  0.96110  0.47310  Biso   1.000  C
  C7       1.0000 0.47310  0.09270  0.47310  Biso   1.000  C
  C8       1.0000 0.96110  0.47310  0.09270  Biso   1.000  C
  C9       1.0000 0.09270  0.96110  0.47310  Biso   1.000  C
  C10      1.0000 0.47310  0.47310  0.09270  Biso   1.000  C
  C11      1.0000 0.47310  0.47310  0.96110  Biso   1.000  C
  C12      1.0000 0.96110  0.09270  0.47310  Biso   1.000  C
  C13      1.0000 0.52690  0.90730  0.52690  Biso   1.000  C
  C14      1.0000 0.90730  0.52690  0.03890  Biso   1.000  C
  C15      1.0000 0.03890  0.52690  0.90730  Biso   1.000  C
  C16      1.0000 0.52690  0.03890  0.52690  Biso   1.000  C
  C17      1.0000 0.52690  0.90730  0.03890  Biso   1.000  C
  C18      1.0000 0.03890  0.52690  0.52690  Biso   1.000  C
  C19      1.0000 0.90730  0.52690  0.52690  Biso   1.000  C
  C20      1.0000 0.52690  0.03890  0.90730  Biso   1.000  C
  C21      1.0000 0.03890  0.90730  0.52690  Biso   1.000  C
  C22      1.0000 0.52690  0.52690  0.90730  Biso   1.000  C
  C23      1.0000 0.52690  0.52690  0.03890  Biso   1.000  C
  C24      1.0000 0.90730  0.03890  0.52690  Biso   1.000  C
  C25      1.0000 0.11130  0.38870  0.38870  Biso   1.000  C
  C26      1.0000 0.05380  0.44620  0.44620  Biso   1.000  C
  C27      1.0000 0.38870  0.11130  0.11130  Biso   1.000  C
  C28      1.0000 0.44620  0.05380  0.05380  Biso   1.000  C
  C29      1.0000 0.11130  0.38870  0.11130  Biso   1.000  C
  C30      1.0000 0.05380  0.44620  0.05380  Biso   1.000  C
  C31      1.0000 0.38870  0.11130  0.38870  Biso   1.000  C
  C32      1.0000 0.44620  0.05380  0.44620  Biso   1.000  C
  C33      1.0000 0.11130  0.11130  0.38870  Biso   1.000  C
  C34      1.0000 0.05380  0.05380  0.44620  Biso   1.000  C
  C35      1.0000 0.38870  0.38870  0.11130  Biso   1.000  C
  C36      1.0000 0.44620  0.44620  0.05380  Biso   1.000  C
  C37      1.0000 0.61130  0.88870  0.61130  Biso   1.000  C
  C38      1.0000 0.55380  0.94620  0.55380  Biso   1.000  C
  C39      1.0000 0.88870  0.61130  0.88870  Biso   1.000  C
  C40      1.0000 0.94620  0.55380  0.94620  Biso   1.000  C
  C41      1.0000 0.61130  0.88870  0.88870  Biso   1.000  C
  C42      1.0000 0.55380  0.94620  0.94620  Biso   1.000  C
  C43      1.0000 0.88870  0.61130  0.61130  Biso   1.000  C
  C44      1.0000 0.94620  0.55380  0.55380  Biso   1.000  C
  C45      1.0000 0.88870  0.88870  0.61130  Biso   1.000  C
  C46      1.0000 0.94620  0.94620  0.55380  Biso   1.000  C
  C47      1.0000 0.61130  0.61130  0.88870  Biso   1.000  C
  C48      1.0000 0.55380  0.55380  0.94620  Biso   1.000  C
  O1       1.0000 0.25000  0.25000  0.25000  Biso   1.000  O
  O2       1.0000 0.75000  0.75000  0.75000  Biso   1.000  O
  O3       1.0000 0.19777  0.36600  0.36600  Biso   1.000  O
  O4       1.0000 0.36600  0.19777  0.07023  Biso   1.000  O
  O5       1.0000 0.36600  0.07023  0.19777  Biso   1.000  O
  O6       1.0000 0.07023  0.36600  0.36600  Biso   1.000  O
  O7       1.0000 0.19777  0.36600  0.07023  Biso   1.000  O
  O8       1.0000 0.36600  0.07023  0.36600  Biso   1.000  O
  O9       1.0000 0.36600  0.19777  0.36600  Biso   1.000  O
  O10      1.0000 0.07023  0.36600  0.19777  Biso   1.000  O
  O11      1.0000 0.19777  0.07023  0.36600  Biso   1.000  O
  O12      1.0000 0.36600  0.36600  0.19777  Biso   1.000  O
  O13      1.0000 0.36600  0.36600  0.07023  Biso   1.000  O
  O14      1.0000 0.07023  0.19777  0.36600  Biso   1.000  O
  O15      1.0000 0.63400  0.80223  0.63400  Biso   1.000  O
  O16      1.0000 0.80223  0.63400  0.92977  Biso   1.000  O
  O17      1.0000 0.92977  0.63400  0.80223  Biso   1.000  O
  O18      1.0000 0.63400  0.92977  0.63400  Biso   1.000  O
  O19      1.0000 0.63400  0.80223  0.92977  Biso   1.000  O
  O20      1.0000 0.92977  0.63400  0.63400  Biso   1.000  O
  O21      1.0000 0.80223  0.63400  0.63400  Biso   1.000  O
  O22      1.0000 0.63400  0.92977  0.80223  Biso   1.000  O
  O23      1.0000 0.92977  0.80223  0.63400  Biso   1.000  O
  O24      1.0000 0.63400  0.63400  0.80223  Biso   1.000  O
  O25      1.0000 0.63400  0.63400  0.92977  Biso   1.000  O
  O26      1.0000 0.80223  0.92977  0.63400  Biso   1.000  O
  Zn9      1.0000 0.00546  0.83298  0.13293  Biso   1.000  Zn
  Zn10     1.0000 0.83433  0.00412  0.13293  Biso   1.000  Zn
  Zn11     1.0000 0.42859  0.42724  0.72719  Biso   1.000  Zn
  Zn12     1.0000 0.00546  0.00412  0.13293  Biso   1.000  Zn
  Zn13     1.0000 0.42859  0.59838  0.55606  Biso   1.000  Zn
  Zn14     1.0000 0.42859  0.42724  0.55606  Biso   1.000  Zn
  Zn15     1.0000 0.59972  0.42724  0.55606  Biso   1.000  Zn
  Zn16     1.0000 0.00546  0.00412  0.96180  Biso   1.000  Zn
  C49      1.0000 0.63144  0.75194  0.37785  Biso   1.000  C
  C50      1.0000 0.18367  0.67942  0.31114  Biso   1.000  C
  C51      1.0000 0.75328  0.24904  0.37785  Biso   1.000  C
  C52      1.0000 0.15537  0.76864  0.89746  Biso   1.000  C
  C53      1.0000 0.63144  0.24904  0.88075  Biso   1.000  C
  C54      1.0000 0.76999  0.76864  0.28284  Biso   1.000  C
  C55      1.0000 0.60628  0.60494  0.46393  Biso   1.000  C
  C56      1.0000 0.68077  0.80126  0.31114  Biso   1.000  C
  C57      1.0000 0.80261  0.67942  0.31114  Biso   1.000  C
  C58      1.0000 0.15537  0.15402  0.89746  Biso   1.000  C
  C59      1.0000 0.15537  0.76864  0.28284  Biso   1.000  C
  C60      1.0000 0.25038  0.75194  0.75891  Biso   1.000  C
  C61      1.0000 0.25038  0.63009  0.37785  Biso   1.000  C
  C62      1.0000 0.09759  0.82642  0.22506  Biso   1.000  C
  C63      1.0000 0.82776  0.09625  0.95523  Biso   1.000  C
  C64      1.0000 0.60628  0.33511  0.46393  Biso   1.000  C
  C65      1.0000 0.82776  0.09625  0.22506  Biso   1.000  C
  C66      1.0000 0.82776  0.82642  0.22506  Biso   1.000  C
  C67      1.0000 0.75328  0.63009  0.37785  Biso   1.000  C
  C68      1.0000 0.80261  0.18232  0.31114  Biso   1.000  C
  C69      1.0000 0.33646  0.60494  0.46393  Biso   1.000  C
  C70      1.0000 0.68077  0.18232  0.31114  Biso   1.000  C
  C71      1.0000 0.25038  0.63009  0.88075  Biso   1.000  C
  C72      1.0000 0.09759  0.09625  0.95523  Biso   1.000  C
  C73      1.0000 0.68077  0.18232  0.93008  Biso   1.000  C
  C74      1.0000 0.60628  0.33511  0.73375  Biso   1.000  C
  C75      1.0000 0.27868  0.66272  0.40615  Biso   1.000  C
  C76      1.0000 0.63144  0.24904  0.37785  Biso   1.000  C
  C77      1.0000 0.18367  0.18232  0.80824  Biso   1.000  C
  C78      1.0000 0.09759  0.82642  0.95523  Biso   1.000  C
  C79      1.0000 0.75328  0.24904  0.75891  Biso   1.000  C
  C80      1.0000 0.18367  0.18232  0.93008  Biso   1.000  C
  C81      1.0000 0.66406  0.27734  0.79153  Biso   1.000  C
  C82      1.0000 0.25038  0.75194  0.37785  Biso   1.000  C
  C83      1.0000 0.25038  0.24904  0.75891  Biso   1.000  C
  C84      1.0000 0.33646  0.60494  0.73375  Biso   1.000  C
  C85      1.0000 0.25038  0.24904  0.88075  Biso   1.000  C
  C86      1.0000 0.18367  0.67942  0.93008  Biso   1.000  C
  C87      1.0000 0.18367  0.80126  0.80824  Biso   1.000  C
  C88      1.0000 0.76999  0.15402  0.28284  Biso   1.000  C
  C89      1.0000 0.18367  0.80126  0.31114  Biso   1.000  C
  C90      1.0000 0.66406  0.27734  0.40615  Biso   1.000  C
  C91      1.0000 0.27868  0.66272  0.79153  Biso   1.000  C
  C92      1.0000 0.33646  0.33511  0.73375  Biso   1.000  C
  C93      1.0000 0.27868  0.27734  0.79153  Biso   1.000  C
  C94      1.0000 0.76999  0.15402  0.89746  Biso   1.000  C
  C95      1.0000 0.80261  0.18232  0.80824  Biso   1.000  C
  C96      1.0000 0.66406  0.66272  0.40615  Biso   1.000  C
  O27      1.0000 0.35699  0.64668  0.48447  Biso   1.000  O
  O28      1.0000 0.35699  0.64668  0.65094  Biso   1.000  O
  O29      1.0000 0.07705  0.78468  0.20452  Biso   1.000  O
  O30      1.0000 0.52347  0.35565  0.77550  Biso   1.000  O
  O31      1.0000 0.35699  0.35565  0.77550  Biso   1.000  O
  O32      1.0000 0.07705  0.78468  0.03805  Biso   1.000  O
  O33      1.0000 0.91058  0.07571  0.91349  Biso   1.000  O
  O34      1.0000 0.07705  0.07571  0.91349  Biso   1.000  O
  O35      1.0000 0.35699  0.52212  0.48447  Biso   1.000  O
  O36      1.0000 0.64802  0.52212  0.48447  Biso   1.000  O
  O37      1.0000 0.07705  0.90923  0.20452  Biso   1.000  O
  O38      1.0000 0.35699  0.35565  0.65094  Biso   1.000  O
  O39      1.0000 0.91058  0.07571  0.20452  Biso   1.000  O
  O40      1.0000 0.78602  0.90923  0.20452  Biso   1.000  O
  O41      1.0000 0.78602  0.07571  0.20452  Biso   1.000  O
  O42      1.0000 0.35699  0.52212  0.77550  Biso   1.000  O
  O43      1.0000 0.47137  0.47003  0.59884  Biso   1.000  O
  O44      1.0000 0.52347  0.64668  0.48447  Biso   1.000  O
  O45      1.0000 0.91058  0.78468  0.20452  Biso   1.000  O
  O46      1.0000 0.78602  0.07571  0.03805  Biso   1.000  O
  O47      1.0000 0.64802  0.35565  0.48447  Biso   1.000  O
  O48      1.0000 0.07705  0.07571  0.03805  Biso   1.000  O
  O49      1.0000 0.96268  0.96133  0.09015  Biso   1.000  O
  O50      1.0000 0.52347  0.35565  0.48447  Biso   1.000  O
  O51      1.0000 0.07705  0.90923  0.91349  Biso   1.000  O
  O52      1.0000 0.64802  0.35565  0.65094  Biso   1.000  O
  H25      1.0000 0.55598  0.78365  0.39972  Biso   1.000  H
  H26      1.0000 0.16401  0.64380  0.29148  Biso   1.000  H
  H27      1.0000 0.78499  0.27091  0.39972  Biso   1.000  H
  H28      1.0000 0.55598  0.27091  0.91246  Biso   1.000  H
  H29      1.0000 0.64906  0.87672  0.28926  Biso   1.000  H
  H30      1.0000 0.87753  0.64380  0.29148  Biso   1.000  H
  H31      1.0000 0.27225  0.78365  0.68345  Biso   1.000  H
  H32      1.0000 0.27225  0.55464  0.39972  Biso   1.000  H
  H33      1.0000 0.78499  0.55464  0.39972  Biso   1.000  H
  H34      1.0000 0.87806  0.16045  0.28926  Biso   1.000  H
  H35      1.0000 0.64906  0.16045  0.28926  Biso   1.000  H
  H36      1.0000 0.27225  0.55464  0.91246  Biso   1.000  H
  H37      1.0000 0.64906  0.16045  0.00553  Biso   1.000  H
  H38      1.0000 0.55598  0.27091  0.39972  Biso   1.000  H
  H39      1.0000 0.16401  0.16267  0.77262  Biso   1.000  H
  H40      1.0000 0.78890  0.26869  0.68398  Biso   1.000  H
  H41      1.0000 0.16401  0.16267  0.00500  Biso   1.000  H
  H42      1.0000 0.27003  0.78756  0.39750  Biso   1.000  H
  H43      1.0000 0.27225  0.27091  0.68345  Biso   1.000  H
  H44      1.0000 0.27225  0.27091  0.91246  Biso   1.000  H
  H45      1.0000 0.16401  0.64380  0.00500  Biso   1.000  H
  H46      1.0000 0.16401  0.87619  0.77262  Biso   1.000  H
  H47      1.0000 0.16401  0.87619  0.29148  Biso   1.000  H
  H48      1.0000 0.87806  0.16045  0.77653  Biso   1.000  H
