data_image0
_cell_length_a       18.266
_cell_length_b       18.266
_cell_length_c       18.266
_cell_angle_alpha    60
_cell_angle_beta     60
_cell_angle_gamma    60

_symmetry_space_group_name_H-M    "P 1"
_symmetry_int_tables_number       1

loop_
  _symmetry_equiv_pos_as_xyz
  'x, y, z'

loop_
  _atom_site_label
  _atom_site_occupancy
  _atom_site_fract_x
  _atom_site_fract_y
  _atom_site_fract_z
  _atom_site_thermal_displace_type
  _atom_site_B_iso_or_equiv
  _atom_site_type_symbol
  Zn1      1.0000 0.29338  0.29338  0.29338  Biso   1.000  Zn
  Zn2      1.0000 0.29338  0.29338  0.11986  Biso   1.000  Zn
  Zn3      1.0000 0.29338  0.11986  0.29338  Biso   1.000  Zn
  Zn4      1.0000 0.11986  0.29338  0.29338  Biso   1.000  Zn
  Zn5      1.0000 0.70662  0.70662  0.70662  Biso   1.000  Zn
  Zn6      1.0000 0.70662  0.70662  0.88014  Biso   1.000  Zn
  Zn7      1.0000 0.88014  0.70662  0.70662  Biso   1.000  Zn
  Zn8      1.0000 0.70662  0.88014  0.70662  Biso   1.000  Zn
  H1       1.0000 0.15460  0.45520  0.45520  Biso   1.000  H
  H2       1.0000 0.45520  0.15460  0.93500  Biso   1.000  H
  H3       1.0000 0.45520  0.93500  0.15460  Biso   1.000  H
  H4       1.0000 0.93500  0.45520  0.45520  Biso   1.000  H
  H5       1.0000 0.15460  0.45520  0.93500  Biso   1.000  H
  H6       1.0000 0.45520  0.93500  0.45520  Biso   1.000  H
  H7       1.0000 0.45520  0.15460  0.45520  Biso   1.000  H
  H8       1.0000 0.93500  0.45520  0.15460  Biso   1.000  H
  H9       1.0000 0.15460  0.93500  0.45520  Biso   1.000  H
  H10      1.0000 0.45520  0.45520  0.15460  Biso   1.000  H
  H11      1.0000 0.45520  0.45520  0.93500  Biso   1.000  H
  H12      1.0000 0.93500  0.15460  0.45520  Biso   1.000  H
  H13      1.0000 0.54480  0.84540  0.54480  Biso   1.000  H
  H14      1.0000 0.84540  0.54480  0.06500  Biso   1.000  H
  H15      1.0000 0.06500  0.54480  0.84540  Biso   1.000  H
  H16      1.0000 0.54480  0.06500  0.54480  Biso   1.000  H
  H17      1.0000 0.54480  0.84540  0.06500  Biso   1.000  H
  H18      1.0000 0.06500  0.54480  0.54480  Biso   1.000  H
  H19      1.0000 0.84540  0.54480  0.54480  Biso   1.000  H
  H20      1.0000 0.54480  0.06500  0.84540  Biso   1.000  H
  H21      1.0000 0.06500  0.84540  0.54480  Biso   1.000  H
  H22      1.0000 0.54480  0.54480  0.84540  Biso   1.000  H
  H23      1.0000 0.54480  0.54480  0.06500  Biso   1.000  H
  H24      1.0000 0.84540  0.06500  0.54480  Biso   1.000  H
  C1       1.0000 0.09270  0.47310  0.47310  Biso   1.000  C
  C2       1.0000 0.47310  0.09270  0.96110  Biso   1.000  C
  C3       1.0000 0.47310  0.96110  0.09270  Biso   1.000  C
  C4       1.0000 0.96110  0.47310  0.47310  Biso   1.000  C
  C5       1.0000 0.09270  0.47310  0.96110  Biso   1.000  C
  C6       1.0000 0.47310  0.96110  0.47310  Biso   1.000  C
  C7       1.0000 0.47310  0.09270  0.47310  Biso   1.000  C
  C8       1.0000 0.96110  0.47310  0.09270  Biso   1.000  C
  C9       1.0000 0.09270  0.96110  0.47310  Biso   1.000  C
  C10      1.0000 0.47310  0.47310  0.09270  Biso   1.000  C
  C11      1.0000 0.47310  0.47310  0.96110  Biso   1.000  C
  C12      1.0000 0.96110  0.09270  0.47310  Biso   1.000  C
  C13      1.0000 0.52690  0.90730  0.52690  Biso   1.000  C
  C14      1.0000 0.90730  0.52690  0.03890  Biso   1.000  C
  C15      1.0000 0.03890  0.52690  0.90730  Biso   1.000  C
  C16      1.0000 0.52690  0.03890  0.52690  Biso   1.000  C
  C17      1.0000 0.52690  0.90730  0.03890  Biso   1.000  C
  C18      1.0000 0.03890  0.52690  0.52690  Biso   1.000  C
  C19      1.0000 0.90730  0.52690  0.52690  Biso   1.000  C
  C20      1.0000 0.52690  0.03890  0.90730  Biso   1.000  C
  C21      1.0000 0.03890  0.90730  0.52690  Biso   1.000  C
  C22      1.0000 0.52690  0.52690  0.90730  Biso   1.000  C
  C23      1.0000 0.52690  0.52690  0.03890  Biso   1.000  C
  C24      1.0000 0.90730  0.03890  0.52690  Biso   1.000  C
  C25      1.0000 0.11130  0.38870  0.38870  Biso   1.000  C
  C26      1.0000 0.05380  0.44620  0.44620  Biso   1.000  C
  C27      1.0000 0.38870  0.11130  0.11130  Biso   1.000  C
  C28      1.0000 0.44620  0.05380  0.05380  Biso   1.000  C
  C29      1.0000 0.11130  0.38870  0.11130  Biso   1.000  C
  C30      1.0000 0.05380  0.44620  0.05380  Biso   1.000  C
  C31      1.0000 0.38870  0.11130  0.38870  Biso   1.000  C
  C32      1.0000 0.44620  0.05380  0.44620  Biso   1.000  C
  C33      1.0000 0.11130  0.11130  0.38870  Biso   1.000  C
  C34      1.0000 0.05380  0.05380  0.44620  Biso   1.000  C
  C35      1.0000 0.38870  0.38870  0.11130  Biso   1.000  C
  C36      1.0000 0.44620  0.44620  0.05380  Biso   1.000  C
  C37      1.0000 0.61130  0.88870  0.61130  Biso   1.000  C
  C38      1.0000 0.55380  0.94620  0.55380  Biso   1.000  C
  C39      1.0000 0.88870  0.61130  0.88870  Biso   1.000  C
  C40      1.0000 0.94620  0.55380  0.94620  Biso   1.000  C
  C41      1.0000 0.61130  0.88870  0.88870  Biso   1.000  C
  C42      1.0000 0.55380  0.94620  0.94620  Biso   1.000  C
  C43      1.0000 0.88870  0.61130  0.61130  Biso   1.000  C
  C44      1.0000 0.94620  0.55380  0.55380  Biso   1.000  C
  C45      1.0000 0.88870  0.88870  0.61130  Biso   1.000  C
  C46      1.0000 0.94620  0.94620  0.55380  Biso   1.000  C
  C47      1.0000 0.61130  0.61130  0.88870  Biso   1.000  C
  C48      1.0000 0.55380  0.55380  0.94620  Biso   1.000  C
  O1       1.0000 0.25000  0.25000  0.25000  Biso   1.000  O
  O2       1.0000 0.75000  0.75000  0.75000  Biso   1.000  O
  O3       1.0000 0.19777  0.36600  0.36600  Biso   1.000  O
  O4       1.0000 0.36600  0.19777  0.07023  Biso   1.000  O
  O5       1.0000 0.36600  0.07023  0.19777  Biso   1.000  O
  O6       1.0000 0.07023  0.36600  0.36600  Biso   1.000  O
  O7       1.0000 0.19777  0.36600  0.07023  Biso   1.000  O
  O8       1.0000 0.36600  0.07023  0.36600  Biso   1.000  O
  O9       1.0000 0.36600  0.19777  0.36600  Biso   1.000  O
  O10      1.0000 0.07023  0.36600  0.19777  Biso   1.000  O
  O11      1.0000 0.19777  0.07023  0.36600  Biso   1.000  O
  O12      1.0000 0.36600  0.36600  0.19777  Biso   1.000  O
  O13      1.0000 0.36600  0.36600  0.07023  Biso   1.000  O
  O14      1.0000 0.07023  0.19777  0.36600  Biso   1.000  O
  O15      1.0000 0.63400  0.80223  0.63400  Biso   1.000  O
  O16      1.0000 0.80223  0.63400  0.92977  Biso   1.000  O
  O17      1.0000 0.92977  0.63400  0.80223  Biso   1.000  O
  O18      1.0000 0.63400  0.92977  0.63400  Biso   1.000  O
  O19      1.0000 0.63400  0.80223  0.92977  Biso   1.000  O
  O20      1.0000 0.92977  0.63400  0.63400  Biso   1.000  O
  O21      1.0000 0.80223  0.63400  0.63400  Biso   1.000  O
  O22      1.0000 0.63400  0.92977  0.80223  Biso   1.000  O
  O23      1.0000 0.92977  0.80223  0.63400  Biso   1.000  O
  O24      1.0000 0.63400  0.63400  0.80223  Biso   1.000  O
  O25      1.0000 0.63400  0.63400  0.92977  Biso   1.000  O
  O26      1.0000 0.80223  0.92977  0.63400  Biso   1.000  O
  Zn9      1.0000 0.59482  0.07870  0.71927  Biso   1.000  Zn
  Zn10     1.0000 0.59482  0.25287  0.71927  Biso   1.000  Zn
  Zn11     1.0000 0.42065  0.25287  0.71927  Biso   1.000  Zn
  Zn12     1.0000 0.59482  0.25287  0.54510  Biso   1.000  Zn
  Zn13     1.0000 0.01436  0.66358  0.12998  Biso   1.000  Zn
  Zn14     1.0000 0.01436  0.83776  0.12998  Biso   1.000  Zn
  Zn15     1.0000 0.18854  0.66358  0.12998  Biso   1.000  Zn
  Zn16     1.0000 0.01436  0.66358  0.30416  Biso   1.000  Zn
  H25      1.0000 0.45686  0.89234  0.88143  Biso   1.000  H
  H26      1.0000 0.75698  0.41504  0.58131  Biso   1.000  H
  H27      1.0000 0.23429  0.11492  0.88143  Biso   1.000  H
  H28      1.0000 0.75698  0.41504  0.35874  Biso   1.000  H
  H29      1.0000 0.23429  0.41504  0.58131  Biso   1.000  H
  H30      1.0000 0.75698  0.11492  0.88143  Biso   1.000  H
  H31      1.0000 0.45686  0.41504  0.35874  Biso   1.000  H
  H32      1.0000 0.75698  0.89234  0.88143  Biso   1.000  H
  H33      1.0000 0.75698  0.11492  0.35874  Biso   1.000  H
  H34      1.0000 0.45686  0.41504  0.88143  Biso   1.000  H
  H35      1.0000 0.75698  0.89234  0.58131  Biso   1.000  H
  H36      1.0000 0.23429  0.41504  0.88143  Biso   1.000  H
  H37      1.0000 0.15232  0.50142  0.96782  Biso   1.000  H
  H38      1.0000 0.85220  0.02412  0.26794  Biso   1.000  H
  H39      1.0000 0.37490  0.50142  0.96782  Biso   1.000  H
  H40      1.0000 0.85220  0.80154  0.49051  Biso   1.000  H
  H41      1.0000 0.37490  0.50142  0.26794  Biso   1.000  H
  H42      1.0000 0.85220  0.02412  0.96782  Biso   1.000  H
  H43      1.0000 0.15232  0.50142  0.49051  Biso   1.000  H
  H44      1.0000 0.85220  0.80154  0.96782  Biso   1.000  H
  H45      1.0000 0.85220  0.50142  0.49051  Biso   1.000  H
  H46      1.0000 0.15232  0.02412  0.96782  Biso   1.000  H
  H47      1.0000 0.85220  0.50142  0.26794  Biso   1.000  H
  H48      1.0000 0.37490  0.80154  0.96782  Biso   1.000  H
  C49      1.0000 0.39330  0.91901  0.89989  Biso   1.000  C
  C50      1.0000 0.77544  0.43349  0.51774  Biso   1.000  C
  C51      1.0000 0.26095  0.05135  0.89989  Biso   1.000  C
  C52      1.0000 0.77544  0.43349  0.38540  Biso   1.000  C
  C53      1.0000 0.26095  0.43349  0.51774  Biso   1.000  C
  C54      1.0000 0.77544  0.05135  0.89989  Biso   1.000  C
  C55      1.0000 0.39330  0.43349  0.38540  Biso   1.000  C
  C56      1.0000 0.77544  0.91901  0.89989  Biso   1.000  C
  C57      1.0000 0.77544  0.05135  0.38540  Biso   1.000  C
  C58      1.0000 0.39330  0.43349  0.89989  Biso   1.000  C
  C59      1.0000 0.77544  0.91901  0.51774  Biso   1.000  C
  C60      1.0000 0.26095  0.43349  0.89989  Biso   1.000  C
  C61      1.0000 0.21589  0.48297  0.94937  Biso   1.000  C
  C62      1.0000 0.83375  0.99745  0.33151  Biso   1.000  C
  C63      1.0000 0.34823  0.48297  0.94937  Biso   1.000  C
  C64      1.0000 0.83375  0.86511  0.46385  Biso   1.000  C
  C65      1.0000 0.34823  0.48297  0.33151  Biso   1.000  C
  C66      1.0000 0.83375  0.99745  0.94937  Biso   1.000  C
  C67      1.0000 0.21589  0.48297  0.46385  Biso   1.000  C
  C68      1.0000 0.83375  0.86511  0.94937  Biso   1.000  C
  C69      1.0000 0.83375  0.48297  0.46385  Biso   1.000  C
  C70      1.0000 0.21589  0.99745  0.94937  Biso   1.000  C
  C71      1.0000 0.83375  0.48297  0.33151  Biso   1.000  C
  C72      1.0000 0.34823  0.86511  0.94937  Biso   1.000  C
  C73      1.0000 0.41211  0.07016  0.81490  Biso   1.000  C
  C74      1.0000 0.35422  0.01228  0.87279  Biso   1.000  C
  C75      1.0000 0.69045  0.34850  0.53656  Biso   1.000  C
  C76      1.0000 0.74834  0.40639  0.47867  Biso   1.000  C
  C77      1.0000 0.41211  0.34850  0.53656  Biso   1.000  C
  C78      1.0000 0.35422  0.40639  0.47867  Biso   1.000  C
  C79      1.0000 0.69045  0.07016  0.81490  Biso   1.000  C
  C80      1.0000 0.74834  0.01228  0.87279  Biso   1.000  C
  C81      1.0000 0.69045  0.07016  0.53656  Biso   1.000  C
  C82      1.0000 0.74834  0.01228  0.47867  Biso   1.000  C
  C83      1.0000 0.41211  0.34850  0.81490  Biso   1.000  C
  C84      1.0000 0.35422  0.40639  0.87279  Biso   1.000  C
  C85      1.0000 0.19708  0.56795  0.03435  Biso   1.000  C
  C86      1.0000 0.25496  0.51007  0.97646  Biso   1.000  C
  C87      1.0000 0.91873  0.84630  0.31269  Biso   1.000  C
  C88      1.0000 0.86085  0.90418  0.37058  Biso   1.000  C
  C89      1.0000 0.19708  0.56795  0.31269  Biso   1.000  C
  C90      1.0000 0.25496  0.51007  0.37058  Biso   1.000  C
  C91      1.0000 0.91873  0.84630  0.03435  Biso   1.000  C
  C92      1.0000 0.86085  0.90418  0.97646  Biso   1.000  C
  C93      1.0000 0.91873  0.56795  0.31269  Biso   1.000  C
  C94      1.0000 0.86085  0.51007  0.37058  Biso   1.000  C
  C95      1.0000 0.19708  0.84630  0.03435  Biso   1.000  C
  C96      1.0000 0.25496  0.90418  0.97646  Biso   1.000  C
  O27      1.0000 0.55128  0.20933  0.67573  Biso   1.000  O
  O28      1.0000 0.05791  0.70712  0.17352  Biso   1.000  O
  O29      1.0000 0.49608  0.03087  0.79256  Biso   1.000  O
  O30      1.0000 0.66811  0.32617  0.62053  Biso   1.000  O
  O31      1.0000 0.37281  0.15413  0.79256  Biso   1.000  O
  O32      1.0000 0.66811  0.32617  0.49726  Biso   1.000  O
  O33      1.0000 0.37282  0.32617  0.62053  Biso   1.000  O
  O34      1.0000 0.66811  0.15413  0.79256  Biso   1.000  O
  O35      1.0000 0.49608  0.32617  0.49726  Biso   1.000  O
  O36      1.0000 0.66811  0.03087  0.79256  Biso   1.000  O
  O37      1.0000 0.66811  0.15413  0.49726  Biso   1.000  O
  O38      1.0000 0.49608  0.32617  0.79256  Biso   1.000  O
  O39      1.0000 0.66811  0.03087  0.62053  Biso   1.000  O
  O40      1.0000 0.37282  0.32617  0.79256  Biso   1.000  O
  O41      1.0000 0.11311  0.59029  0.05669  Biso   1.000  O
  O42      1.0000 0.94107  0.88559  0.22872  Biso   1.000  O
  O43      1.0000 0.23637  0.59029  0.05669  Biso   1.000  O
  O44      1.0000 0.94107  0.76233  0.35199  Biso   1.000  O
  O45      1.0000 0.23637  0.59029  0.22872  Biso   1.000  O
  O46      1.0000 0.94107  0.88559  0.05669  Biso   1.000  O
  O47      1.0000 0.11311  0.59029  0.35199  Biso   1.000  O
  O48      1.0000 0.94107  0.76233  0.05669  Biso   1.000  O
  O49      1.0000 0.94107  0.59029  0.35199  Biso   1.000  O
  O50      1.0000 0.11311  0.88559  0.05669  Biso   1.000  O
  O51      1.0000 0.94107  0.59029  0.22872  Biso   1.000  O
  O52      1.0000 0.23637  0.76233  0.05669  Biso   1.000  O
