data_image0
_cell_length_a       18.266
_cell_length_b       18.266
_cell_length_c       18.266
_cell_angle_alpha    60
_cell_angle_beta     60
_cell_angle_gamma    60

_symmetry_space_group_name_H-M    "P 1"
_symmetry_int_tables_number       1

loop_
  _symmetry_equiv_pos_as_xyz
  'x, y, z'

loop_
  _atom_site_label
  _atom_site_occupancy
  _atom_site_fract_x
  _atom_site_fract_y
  _atom_site_fract_z
  _atom_site_thermal_displace_type
  _atom_site_B_iso_or_equiv
  _atom_site_type_symbol
  C1       1.0000 0.29338  0.29338  0.29338  Biso   1.000  C
  C2       1.0000 0.29338  0.29338  0.11986  Biso   1.000  C
  C3       1.0000 0.29338  0.11986  0.29338  Biso   1.000  C
  C4       1.0000 0.11986  0.29338  0.29338  Biso   1.000  C
  C5       1.0000 0.70662  0.70662  0.70662  Biso   1.000  C
  C6       1.0000 0.70662  0.70662  0.88014  Biso   1.000  C
  C7       1.0000 0.88014  0.70662  0.70662  Biso   1.000  C
  C8       1.0000 0.70662  0.88014  0.70662  Biso   1.000  C
  C9       1.0000 0.15460  0.45520  0.45520  Biso   1.000  C
  C10      1.0000 0.45520  0.15460  0.93500  Biso   1.000  C
  C11      1.0000 0.45520  0.93500  0.15460  Biso   1.000  C
  C12      1.0000 0.93500  0.45520  0.45520  Biso   1.000  C
  C13      1.0000 0.15460  0.45520  0.93500  Biso   1.000  C
  C14      1.0000 0.45520  0.93500  0.45520  Biso   1.000  C
  C15      1.0000 0.45520  0.15460  0.45520  Biso   1.000  C
  C16      1.0000 0.93500  0.45520  0.15460  Biso   1.000  C
  C17      1.0000 0.15460  0.93500  0.45520  Biso   1.000  C
  C18      1.0000 0.45520  0.45520  0.15460  Biso   1.000  C
  C19      1.0000 0.45520  0.45520  0.93500  Biso   1.000  C
  C20      1.0000 0.93500  0.15460  0.45520  Biso   1.000  C
  C21      1.0000 0.54480  0.84540  0.54480  Biso   1.000  C
  C22      1.0000 0.84540  0.54480  0.06500  Biso   1.000  C
  C23      1.0000 0.06500  0.54480  0.84540  Biso   1.000  C
  C24      1.0000 0.54480  0.06500  0.54480  Biso   1.000  C
  C25      1.0000 0.54480  0.84540  0.06500  Biso   1.000  C
  C26      1.0000 0.06500  0.54480  0.54480  Biso   1.000  C
  C27      1.0000 0.84540  0.54480  0.54480  Biso   1.000  C
  C28      1.0000 0.54480  0.06500  0.84540  Biso   1.000  C
  C29      1.0000 0.06500  0.84540  0.54480  Biso   1.000  C
  C30      1.0000 0.54480  0.54480  0.84540  Biso   1.000  C
  C31      1.0000 0.54480  0.54480  0.06500  Biso   1.000  C
  C32      1.0000 0.84540  0.06500  0.54480  Biso   1.000  C
  C33      1.0000 0.09270  0.47310  0.47310  Biso   1.000  C
  C34      1.0000 0.47310  0.09270  0.96110  Biso   1.000  C
  C35      1.0000 0.47310  0.96110  0.09270  Biso   1.000  C
  C36      1.0000 0.96110  0.47310  0.47310  Biso   1.000  C
  C37      1.0000 0.09270  0.47310  0.96110  Biso   1.000  C
  C38      1.0000 0.47310  0.96110  0.47310  Biso   1.000  C
  C39      1.0000 0.47310  0.09270  0.47310  Biso   1.000  C
  C40      1.0000 0.96110  0.47310  0.09270  Biso   1.000  C
  C41      1.0000 0.09270  0.96110  0.47310  Biso   1.000  C
  C42      1.0000 0.47310  0.47310  0.09270  Biso   1.000  C
  C43      1.0000 0.47310  0.47310  0.96110  Biso   1.000  C
  C44      1.0000 0.96110  0.09270  0.47310  Biso   1.000  C
  C45      1.0000 0.52690  0.90730  0.52690  Biso   1.000  C
  C46      1.0000 0.90730  0.52690  0.03890  Biso   1.000  C
  C47      1.0000 0.03890  0.52690  0.90730  Biso   1.000  C
  C48      1.0000 0.52690  0.03890  0.52690  Biso   1.000  C
  C49      1.0000 0.52690  0.90730  0.03890  Biso   1.000  C
  C50      1.0000 0.03890  0.52690  0.52690  Biso   1.000  C
  C51      1.0000 0.90730  0.52690  0.52690  Biso   1.000  C
  C52      1.0000 0.52690  0.03890  0.90730  Biso   1.000  C
  C53      1.0000 0.03890  0.90730  0.52690  Biso   1.000  C
  C54      1.0000 0.52690  0.52690  0.90730  Biso   1.000  C
  C55      1.0000 0.52690  0.52690  0.03890  Biso   1.000  C
  C56      1.0000 0.90730  0.03890  0.52690  Biso   1.000  C
  C57      1.0000 0.11130  0.38870  0.38870  Biso   1.000  C
  C58      1.0000 0.05380  0.44620  0.44620  Biso   1.000  C
  C59      1.0000 0.38870  0.11130  0.11130  Biso   1.000  C
  C60      1.0000 0.44620  0.05380  0.05380  Biso   1.000  C
  C61      1.0000 0.11130  0.38870  0.11130  Biso   1.000  C
  C62      1.0000 0.05380  0.44620  0.05380  Biso   1.000  C
  C63      1.0000 0.38870  0.11130  0.38870  Biso   1.000  C
  C64      1.0000 0.44620  0.05380  0.44620  Biso   1.000  C
  C65      1.0000 0.11130  0.11130  0.38870  Biso   1.000  C
  C66      1.0000 0.05380  0.05380  0.44620  Biso   1.000  C
  C67      1.0000 0.38870  0.38870  0.11130  Biso   1.000  C
  C68      1.0000 0.44620  0.44620  0.05380  Biso   1.000  C
  C69      1.0000 0.61130  0.88870  0.61130  Biso   1.000  C
  C70      1.0000 0.55380  0.94620  0.55380  Biso   1.000  C
  C71      1.0000 0.88870  0.61130  0.88870  Biso   1.000  C
  C72      1.0000 0.94620  0.55380  0.94620  Biso   1.000  C
  C73      1.0000 0.61130  0.88870  0.88870  Biso   1.000  C
  C74      1.0000 0.55380  0.94620  0.94620  Biso   1.000  C
  C75      1.0000 0.88870  0.61130  0.61130  Biso   1.000  C
  C76      1.0000 0.94620  0.55380  0.55380  Biso   1.000  C
  C77      1.0000 0.88870  0.88870  0.61130  Biso   1.000  C
  C78      1.0000 0.94620  0.94620  0.55380  Biso   1.000  C
  C79      1.0000 0.61130  0.61130  0.88870  Biso   1.000  C
  C80      1.0000 0.55380  0.55380  0.94620  Biso   1.000  C
  C81      1.0000 0.25000  0.25000  0.25000  Biso   1.000  C
  C82      1.0000 0.75000  0.75000  0.75000  Biso   1.000  C
  C83      1.0000 0.19777  0.36600  0.36600  Biso   1.000  C
  C84      1.0000 0.36600  0.19777  0.07023  Biso   1.000  C
  C85      1.0000 0.36600  0.07023  0.19777  Biso   1.000  C
  C86      1.0000 0.07023  0.36600  0.36600  Biso   1.000  C
  C87      1.0000 0.19777  0.36600  0.07023  Biso   1.000  C
  C88      1.0000 0.36600  0.07023  0.36600  Biso   1.000  C
  C89      1.0000 0.36600  0.19777  0.36600  Biso   1.000  C
  C90      1.0000 0.07023  0.36600  0.19777  Biso   1.000  C
  C91      1.0000 0.19777  0.07023  0.36600  Biso   1.000  C
  C92      1.0000 0.36600  0.36600  0.19777  Biso   1.000  C
  C93      1.0000 0.36600  0.36600  0.07023  Biso   1.000  C
  C94      1.0000 0.07023  0.19777  0.36600  Biso   1.000  C
  C95      1.0000 0.63400  0.80223  0.63400  Biso   1.000  C
  C96      1.0000 0.80223  0.63400  0.92977  Biso   1.000  C
  C97      1.0000 0.92977  0.63400  0.80223  Biso   1.000  C
  C98      1.0000 0.63400  0.92977  0.63400  Biso   1.000  C
  C99      1.0000 0.63400  0.80223  0.92977  Biso   1.000  C
  C100     1.0000 0.92977  0.63400  0.63400  Biso   1.000  C
  C101     1.0000 0.80223  0.63400  0.63400  Biso   1.000  C
  C102     1.0000 0.63400  0.92977  0.80223  Biso   1.000  C
  C103     1.0000 0.92977  0.80223  0.63400  Biso   1.000  C
  C104     1.0000 0.63400  0.63400  0.80223  Biso   1.000  C
  C105     1.0000 0.63400  0.63400  0.92977  Biso   1.000  C
  C106     1.0000 0.80223  0.92977  0.63400  Biso   1.000  C
  O1       1.0000 0.00549  0.83736  0.13363  Biso   1.000  O
  O2       1.0000 0.83319  0.00966  0.13363  Biso   1.000  O
  O3       1.0000 0.00549  0.00966  0.13363  Biso   1.000  O
  O4       1.0000 0.00549  0.00966  0.96133  Biso   1.000  O
  O5       1.0000 0.59531  0.41994  0.54391  Biso   1.000  O
  O6       1.0000 0.41577  0.59948  0.54391  Biso   1.000  O
  O7       1.0000 0.41577  0.41994  0.72345  Biso   1.000  O
  O8       1.0000 0.41577  0.41994  0.54391  Biso   1.000  O
  O9       1.0000 0.77852  0.56622  0.38268  Biso   1.000  O
  O10      1.0000 0.56205  0.78269  0.38268  Biso   1.000  O
  O11      1.0000 0.25454  0.25871  0.90666  Biso   1.000  O
  O12      1.0000 0.25454  0.25871  0.69019  Biso   1.000  O
  O13      1.0000 0.77852  0.25871  0.38268  Biso   1.000  O
  O14      1.0000 0.56205  0.25871  0.38268  Biso   1.000  O
  O15      1.0000 0.25454  0.78269  0.69019  Biso   1.000  O
  O16      1.0000 0.25454  0.56622  0.90666  Biso   1.000  O
  O17      1.0000 0.77852  0.25871  0.69019  Biso   1.000  O
  O18      1.0000 0.56205  0.25871  0.90666  Biso   1.000  O
  O19      1.0000 0.25454  0.56622  0.38268  Biso   1.000  O
  O20      1.0000 0.25454  0.78269  0.38268  Biso   1.000  O
  O21      1.0000 0.79411  0.68111  0.31745  Biso   1.000  O
  O22      1.0000 0.75200  0.62788  0.36511  Biso   1.000  O
  O23      1.0000 0.67694  0.79828  0.31745  Biso   1.000  O
  O24      1.0000 0.62371  0.75617  0.36511  Biso   1.000  O
  O25      1.0000 0.18931  0.19347  0.92225  Biso   1.000  O
  O26      1.0000 0.23697  0.24114  0.88015  Biso   1.000  O
  O27      1.0000 0.18931  0.19347  0.80508  Biso   1.000  O
  O28      1.0000 0.23697  0.24114  0.75185  Biso   1.000  O
  O29      1.0000 0.79411  0.19347  0.31745  Biso   1.000  O
  O30      1.0000 0.75200  0.24114  0.36511  Biso   1.000  O
  O31      1.0000 0.67694  0.19347  0.31745  Biso   1.000  O
  O32      1.0000 0.62371  0.24114  0.36511  Biso   1.000  O
  O33      1.0000 0.18930  0.79828  0.80508  Biso   1.000  O
  O34      1.0000 0.23697  0.75617  0.75185  Biso   1.000  O
  O35      1.0000 0.18930  0.68111  0.92225  Biso   1.000  O
  O36      1.0000 0.23697  0.62788  0.88015  Biso   1.000  O
  O37      1.0000 0.79411  0.19347  0.80508  Biso   1.000  O
  O38      1.0000 0.75200  0.24114  0.75185  Biso   1.000  O
  O39      1.0000 0.67694  0.19347  0.92225  Biso   1.000  O
  O40      1.0000 0.62371  0.24114  0.88015  Biso   1.000  O
  O41      1.0000 0.18931  0.68111  0.31745  Biso   1.000  O
  O42      1.0000 0.23697  0.62788  0.36511  Biso   1.000  O
  O43      1.0000 0.18931  0.79828  0.31745  Biso   1.000  O
  O44      1.0000 0.23697  0.75617  0.36511  Biso   1.000  O
  O45      1.0000 0.76869  0.77286  0.28428  Biso   1.000  O
  O46      1.0000 0.66522  0.66939  0.38775  Biso   1.000  O
  O47      1.0000 0.60425  0.60842  0.44871  Biso   1.000  O
  O48      1.0000 0.82509  0.82926  0.22788  Biso   1.000  O
  O49      1.0000 0.15614  0.16031  0.89683  Biso   1.000  O
  O50      1.0000 0.25961  0.26378  0.79336  Biso   1.000  O
  O51      1.0000 0.32057  0.32474  0.73239  Biso   1.000  O
  O52      1.0000 0.09974  0.10391  0.95323  Biso   1.000  O
  O53      1.0000 0.76869  0.16031  0.28428  Biso   1.000  O
  O54      1.0000 0.66522  0.26378  0.38775  Biso   1.000  O
  O55      1.0000 0.60425  0.32474  0.44871  Biso   1.000  O
  O56      1.0000 0.82509  0.10391  0.22788  Biso   1.000  O
  O57      1.0000 0.15614  0.77286  0.89683  Biso   1.000  O
  O58      1.0000 0.25961  0.66939  0.79336  Biso   1.000  O
  O59      1.0000 0.32057  0.60842  0.73239  Biso   1.000  O
  O60      1.0000 0.09974  0.82926  0.95323  Biso   1.000  O
  O61      1.0000 0.76869  0.16031  0.89683  Biso   1.000  O
  O62      1.0000 0.66522  0.26378  0.79336  Biso   1.000  O
  O63      1.0000 0.60425  0.32474  0.73239  Biso   1.000  O
  O64      1.0000 0.82509  0.10391  0.95323  Biso   1.000  O
  O65      1.0000 0.15614  0.77286  0.28428  Biso   1.000  O
  O66      1.0000 0.25961  0.66939  0.38775  Biso   1.000  O
  O67      1.0000 0.32057  0.60842  0.44871  Biso   1.000  O
  O68      1.0000 0.09974  0.82926  0.22788  Biso   1.000  O
  O69      1.0000 0.64318  0.52144  0.47274  Biso   1.000  O
  O70      1.0000 0.90433  0.79252  0.20663  Biso   1.000  O
  O71      1.0000 0.51727  0.64735  0.47274  Biso   1.000  O
  O72      1.0000 0.78835  0.90849  0.20663  Biso   1.000  O
  O73      1.0000 0.34460  0.34877  0.77132  Biso   1.000  O
  O74      1.0000 0.07849  0.08266  0.03247  Biso   1.000  O
  O75      1.0000 0.34460  0.34877  0.64541  Biso   1.000  O
  O76      1.0000 0.07849  0.08266  0.91649  Biso   1.000  O
  O77      1.0000 0.64318  0.34877  0.47274  Biso   1.000  O
  O78      1.0000 0.90433  0.08266  0.20663  Biso   1.000  O
  O79      1.0000 0.51727  0.34877  0.47274  Biso   1.000  O
  O80      1.0000 0.78835  0.08266  0.20663  Biso   1.000  O
  O81      1.0000 0.34460  0.64735  0.64541  Biso   1.000  O
  O82      1.0000 0.07849  0.90849  0.91649  Biso   1.000  O
  O83      1.0000 0.34460  0.52144  0.77132  Biso   1.000  O
  O84      1.0000 0.07849  0.79252  0.03247  Biso   1.000  O
  O85      1.0000 0.64318  0.34877  0.64541  Biso   1.000  O
  O86      1.0000 0.90433  0.08266  0.91649  Biso   1.000  O
  O87      1.0000 0.51727  0.34877  0.77132  Biso   1.000  O
  O88      1.0000 0.78835  0.08266  0.03247  Biso   1.000  O
  O89      1.0000 0.34460  0.52144  0.47274  Biso   1.000  O
  O90      1.0000 0.07849  0.79252  0.20663  Biso   1.000  O
  O91      1.0000 0.34460  0.64735  0.47274  Biso   1.000  O
  O92      1.0000 0.07849  0.90849  0.20663  Biso   1.000  O
  O93      1.0000 0.46593  0.47010  0.59407  Biso   1.000  O
  O94      1.0000 0.96241  0.96658  0.09055  Biso   1.000  O
