data_image0
_cell_length_a       18.266
_cell_length_b       18.266
_cell_length_c       18.266
_cell_angle_alpha    60
_cell_angle_beta     60
_cell_angle_gamma    60

_symmetry_space_group_name_H-M    "P 1"
_symmetry_int_tables_number       1

loop_
  _symmetry_equiv_pos_as_xyz
  'x, y, z'

loop_
  _atom_site_label
  _atom_site_occupancy
  _atom_site_fract_x
  _atom_site_fract_y
  _atom_site_fract_z
  _atom_site_thermal_displace_type
  _atom_site_B_iso_or_equiv
  _atom_site_type_symbol
  C1       1.0000 0.29338  0.29338  0.29338  Biso   1.000  C
  C2       1.0000 0.29338  0.29338  0.11986  Biso   1.000  C
  C3       1.0000 0.29338  0.11986  0.29338  Biso   1.000  C
  C4       1.0000 0.11986  0.29338  0.29338  Biso   1.000  C
  C5       1.0000 0.70662  0.70662  0.70662  Biso   1.000  C
  C6       1.0000 0.70662  0.70662  0.88014  Biso   1.000  C
  C7       1.0000 0.88014  0.70662  0.70662  Biso   1.000  C
  C8       1.0000 0.70662  0.88014  0.70662  Biso   1.000  C
  C9       1.0000 0.15460  0.45520  0.45520  Biso   1.000  C
  C10      1.0000 0.45520  0.15460  0.93500  Biso   1.000  C
  C11      1.0000 0.45520  0.93500  0.15460  Biso   1.000  C
  C12      1.0000 0.93500  0.45520  0.45520  Biso   1.000  C
  C13      1.0000 0.15460  0.45520  0.93500  Biso   1.000  C
  C14      1.0000 0.45520  0.93500  0.45520  Biso   1.000  C
  C15      1.0000 0.45520  0.15460  0.45520  Biso   1.000  C
  C16      1.0000 0.93500  0.45520  0.15460  Biso   1.000  C
  C17      1.0000 0.15460  0.93500  0.45520  Biso   1.000  C
  C18      1.0000 0.45520  0.45520  0.15460  Biso   1.000  C
  C19      1.0000 0.45520  0.45520  0.93500  Biso   1.000  C
  C20      1.0000 0.93500  0.15460  0.45520  Biso   1.000  C
  C21      1.0000 0.54480  0.84540  0.54480  Biso   1.000  C
  C22      1.0000 0.84540  0.54480  0.06500  Biso   1.000  C
  C23      1.0000 0.06500  0.54480  0.84540  Biso   1.000  C
  C24      1.0000 0.54480  0.06500  0.54480  Biso   1.000  C
  C25      1.0000 0.54480  0.84540  0.06500  Biso   1.000  C
  C26      1.0000 0.06500  0.54480  0.54480  Biso   1.000  C
  C27      1.0000 0.84540  0.54480  0.54480  Biso   1.000  C
  C28      1.0000 0.54480  0.06500  0.84540  Biso   1.000  C
  C29      1.0000 0.06500  0.84540  0.54480  Biso   1.000  C
  C30      1.0000 0.54480  0.54480  0.84540  Biso   1.000  C
  C31      1.0000 0.54480  0.54480  0.06500  Biso   1.000  C
  C32      1.0000 0.84540  0.06500  0.54480  Biso   1.000  C
  C33      1.0000 0.09270  0.47310  0.47310  Biso   1.000  C
  C34      1.0000 0.47310  0.09270  0.96110  Biso   1.000  C
  C35      1.0000 0.47310  0.96110  0.09270  Biso   1.000  C
  C36      1.0000 0.96110  0.47310  0.47310  Biso   1.000  C
  C37      1.0000 0.09270  0.47310  0.96110  Biso   1.000  C
  C38      1.0000 0.47310  0.96110  0.47310  Biso   1.000  C
  C39      1.0000 0.47310  0.09270  0.47310  Biso   1.000  C
  C40      1.0000 0.96110  0.47310  0.09270  Biso   1.000  C
  C41      1.0000 0.09270  0.96110  0.47310  Biso   1.000  C
  C42      1.0000 0.47310  0.47310  0.09270  Biso   1.000  C
  C43      1.0000 0.47310  0.47310  0.96110  Biso   1.000  C
  C44      1.0000 0.96110  0.09270  0.47310  Biso   1.000  C
  C45      1.0000 0.52690  0.90730  0.52690  Biso   1.000  C
  C46      1.0000 0.90730  0.52690  0.03890  Biso   1.000  C
  C47      1.0000 0.03890  0.52690  0.90730  Biso   1.000  C
  C48      1.0000 0.52690  0.03890  0.52690  Biso   1.000  C
  C49      1.0000 0.52690  0.90730  0.03890  Biso   1.000  C
  C50      1.0000 0.03890  0.52690  0.52690  Biso   1.000  C
  C51      1.0000 0.90730  0.52690  0.52690  Biso   1.000  C
  C52      1.0000 0.52690  0.03890  0.90730  Biso   1.000  C
  C53      1.0000 0.03890  0.90730  0.52690  Biso   1.000  C
  C54      1.0000 0.52690  0.52690  0.90730  Biso   1.000  C
  C55      1.0000 0.52690  0.52690  0.03890  Biso   1.000  C
  C56      1.0000 0.90730  0.03890  0.52690  Biso   1.000  C
  C57      1.0000 0.11130  0.38870  0.38870  Biso   1.000  C
  C58      1.0000 0.05380  0.44620  0.44620  Biso   1.000  C
  C59      1.0000 0.38870  0.11130  0.11130  Biso   1.000  C
  C60      1.0000 0.44620  0.05380  0.05380  Biso   1.000  C
  C61      1.0000 0.11130  0.38870  0.11130  Biso   1.000  C
  C62      1.0000 0.05380  0.44620  0.05380  Biso   1.000  C
  C63      1.0000 0.38870  0.11130  0.38870  Biso   1.000  C
  C64      1.0000 0.44620  0.05380  0.44620  Biso   1.000  C
  C65      1.0000 0.11130  0.11130  0.38870  Biso   1.000  C
  C66      1.0000 0.05380  0.05380  0.44620  Biso   1.000  C
  C67      1.0000 0.38870  0.38870  0.11130  Biso   1.000  C
  C68      1.0000 0.44620  0.44620  0.05380  Biso   1.000  C
  C69      1.0000 0.61130  0.88870  0.61130  Biso   1.000  C
  C70      1.0000 0.55380  0.94620  0.55380  Biso   1.000  C
  C71      1.0000 0.88870  0.61130  0.88870  Biso   1.000  C
  C72      1.0000 0.94620  0.55380  0.94620  Biso   1.000  C
  C73      1.0000 0.61130  0.88870  0.88870  Biso   1.000  C
  C74      1.0000 0.55380  0.94620  0.94620  Biso   1.000  C
  C75      1.0000 0.88870  0.61130  0.61130  Biso   1.000  C
  C76      1.0000 0.94620  0.55380  0.55380  Biso   1.000  C
  C77      1.0000 0.88870  0.88870  0.61130  Biso   1.000  C
  C78      1.0000 0.94620  0.94620  0.55380  Biso   1.000  C
  C79      1.0000 0.61130  0.61130  0.88870  Biso   1.000  C
  C80      1.0000 0.55380  0.55380  0.94620  Biso   1.000  C
  C81      1.0000 0.25000  0.25000  0.25000  Biso   1.000  C
  C82      1.0000 0.75000  0.75000  0.75000  Biso   1.000  C
  C83      1.0000 0.19777  0.36600  0.36600  Biso   1.000  C
  C84      1.0000 0.36600  0.19777  0.07023  Biso   1.000  C
  C85      1.0000 0.36600  0.07023  0.19777  Biso   1.000  C
  C86      1.0000 0.07023  0.36600  0.36600  Biso   1.000  C
  C87      1.0000 0.19777  0.36600  0.07023  Biso   1.000  C
  C88      1.0000 0.36600  0.07023  0.36600  Biso   1.000  C
  C89      1.0000 0.36600  0.19777  0.36600  Biso   1.000  C
  C90      1.0000 0.07023  0.36600  0.19777  Biso   1.000  C
  C91      1.0000 0.19777  0.07023  0.36600  Biso   1.000  C
  C92      1.0000 0.36600  0.36600  0.19777  Biso   1.000  C
  C93      1.0000 0.36600  0.36600  0.07023  Biso   1.000  C
  C94      1.0000 0.07023  0.19777  0.36600  Biso   1.000  C
  C95      1.0000 0.63400  0.80223  0.63400  Biso   1.000  C
  C96      1.0000 0.80223  0.63400  0.92977  Biso   1.000  C
  C97      1.0000 0.92977  0.63400  0.80223  Biso   1.000  C
  C98      1.0000 0.63400  0.92977  0.63400  Biso   1.000  C
  C99      1.0000 0.63400  0.80223  0.92977  Biso   1.000  C
  C100     1.0000 0.92977  0.63400  0.63400  Biso   1.000  C
  C101     1.0000 0.80223  0.63400  0.63400  Biso   1.000  C
  C102     1.0000 0.63400  0.92977  0.80223  Biso   1.000  C
  C103     1.0000 0.92977  0.80223  0.63400  Biso   1.000  C
  C104     1.0000 0.63400  0.63400  0.80223  Biso   1.000  C
  C105     1.0000 0.63400  0.63400  0.92977  Biso   1.000  C
  C106     1.0000 0.80223  0.92977  0.63400  Biso   1.000  C
  O1       1.0000 0.59500  0.07740  0.71996  Biso   1.000  O
  O2       1.0000 0.59500  0.25247  0.71996  Biso   1.000  O
  O3       1.0000 0.41992  0.25247  0.71996  Biso   1.000  O
  O4       1.0000 0.59500  0.25247  0.54488  Biso   1.000  O
  O5       1.0000 0.01328  0.66299  0.13048  Biso   1.000  O
  O6       1.0000 0.01328  0.83807  0.13048  Biso   1.000  O
  O7       1.0000 0.18835  0.66299  0.13048  Biso   1.000  O
  O8       1.0000 0.01328  0.66299  0.30556  Biso   1.000  O
  O9       1.0000 0.46359  0.89178  0.87847  Biso   1.000  O
  O10      1.0000 0.75351  0.41098  0.58855  Biso   1.000  O
  O11      1.0000 0.23430  0.12106  0.87847  Biso   1.000  O
  O12      1.0000 0.75351  0.41098  0.35927  Biso   1.000  O
  O13      1.0000 0.23430  0.41098  0.58855  Biso   1.000  O
  O14      1.0000 0.75351  0.12106  0.87847  Biso   1.000  O
  O15      1.0000 0.46359  0.41098  0.35927  Biso   1.000  O
  O16      1.0000 0.75351  0.89178  0.87847  Biso   1.000  O
  O17      1.0000 0.75351  0.12106  0.35927  Biso   1.000  O
  O18      1.0000 0.46359  0.41098  0.87847  Biso   1.000  O
  O19      1.0000 0.75351  0.89178  0.58855  Biso   1.000  O
  O20      1.0000 0.23430  0.41098  0.87847  Biso   1.000  O
  O21      1.0000 0.14469  0.50448  0.97197  Biso   1.000  O
  O22      1.0000 0.85477  0.02369  0.26189  Biso   1.000  O
  O23      1.0000 0.37397  0.50448  0.97197  Biso   1.000  O
  O24      1.0000 0.85477  0.79440  0.49117  Biso   1.000  O
  O25      1.0000 0.37397  0.50448  0.26189  Biso   1.000  O
  O26      1.0000 0.85477  0.02369  0.97197  Biso   1.000  O
  O27      1.0000 0.14469  0.50448  0.49117  Biso   1.000  O
  O28      1.0000 0.85477  0.79440  0.97197  Biso   1.000  O
  O29      1.0000 0.85477  0.50448  0.49118  Biso   1.000  O
  O30      1.0000 0.14469  0.02369  0.97197  Biso   1.000  O
  O31      1.0000 0.85477  0.50448  0.26189  Biso   1.000  O
  O32      1.0000 0.37397  0.79440  0.97197  Biso   1.000  O
  O33      1.0000 0.39261  0.91838  0.90066  Biso   1.000  O
  O34      1.0000 0.77569  0.43317  0.51758  Biso   1.000  O
  O35      1.0000 0.26091  0.05009  0.90066  Biso   1.000  O
  O36      1.0000 0.77569  0.43317  0.38587  Biso   1.000  O
  O37      1.0000 0.26091  0.43317  0.51758  Biso   1.000  O
  O38      1.0000 0.77569  0.05009  0.90066  Biso   1.000  O
  O39      1.0000 0.39261  0.43317  0.38587  Biso   1.000  O
  O40      1.0000 0.77569  0.91838  0.90066  Biso   1.000  O
  O41      1.0000 0.77569  0.05009  0.38587  Biso   1.000  O
  O42      1.0000 0.39261  0.43317  0.90066  Biso   1.000  O
  O43      1.0000 0.77569  0.91838  0.51758  Biso   1.000  O
  O44      1.0000 0.26091  0.43317  0.90066  Biso   1.000  O
  O45      1.0000 0.21566  0.48229  0.94978  Biso   1.000  O
  O46      1.0000 0.83258  0.99708  0.33286  Biso   1.000  O
  O47      1.0000 0.34737  0.48229  0.94978  Biso   1.000  O
  O48      1.0000 0.83258  0.86538  0.46457  Biso   1.000  O
  O49      1.0000 0.34737  0.48229  0.33286  Biso   1.000  O
  O50      1.0000 0.83258  0.99708  0.94978  Biso   1.000  O
  O51      1.0000 0.21566  0.48230  0.46457  Biso   1.000  O
  O52      1.0000 0.83258  0.86538  0.94978  Biso   1.000  O
  O53      1.0000 0.83258  0.48230  0.46457  Biso   1.000  O
  O54      1.0000 0.21566  0.99708  0.94978  Biso   1.000  O
  O55      1.0000 0.83258  0.48229  0.33286  Biso   1.000  O
  O56      1.0000 0.34737  0.86538  0.94978  Biso   1.000  O
  O57      1.0000 0.41119  0.06866  0.81623  Biso   1.000  O
  O58      1.0000 0.35477  0.01224  0.87265  Biso   1.000  O
  O59      1.0000 0.69127  0.34874  0.53615  Biso   1.000  O
  O60      1.0000 0.74769  0.40516  0.47973  Biso   1.000  O
  O61      1.0000 0.41119  0.34874  0.53615  Biso   1.000  O
  O62      1.0000 0.35477  0.40516  0.47973  Biso   1.000  O
  O63      1.0000 0.69127  0.06866  0.81623  Biso   1.000  O
  O64      1.0000 0.74769  0.01224  0.87265  Biso   1.000  O
  O65      1.0000 0.69127  0.06866  0.53615  Biso   1.000  O
  O66      1.0000 0.74769  0.01224  0.47973  Biso   1.000  O
  O67      1.0000 0.41119  0.34874  0.81623  Biso   1.000  O
  O68      1.0000 0.35477  0.40516  0.87265  Biso   1.000  O
  O69      1.0000 0.19709  0.56672  0.03421  Biso   1.000  O
  O70      1.0000 0.25351  0.51030  0.97779  Biso   1.000  O
  O71      1.0000 0.91701  0.84680  0.31429  Biso   1.000  O
  O72      1.0000 0.86059  0.90322  0.37071  Biso   1.000  O
  O73      1.0000 0.19709  0.56672  0.31429  Biso   1.000  O
  O74      1.0000 0.25351  0.51030  0.37071  Biso   1.000  O
  O75      1.0000 0.91701  0.84680  0.03421  Biso   1.000  O
  O76      1.0000 0.86059  0.90322  0.97779  Biso   1.000  O
  O77      1.0000 0.91701  0.56672  0.31429  Biso   1.000  O
  O78      1.0000 0.86059  0.51030  0.37071  Biso   1.000  O
  O79      1.0000 0.19709  0.84680  0.03421  Biso   1.000  O
  O80      1.0000 0.25351  0.90322  0.97779  Biso   1.000  O
  O81      1.0000 0.55123  0.20870  0.67619  Biso   1.000  O
  O82      1.0000 0.05705  0.70676  0.17425  Biso   1.000  O
  O83      1.0000 0.49591  0.02971  0.79334  Biso   1.000  O
  O84      1.0000 0.66838  0.32586  0.62088  Biso   1.000  O
  O85      1.0000 0.37224  0.15339  0.79334  Biso   1.000  O
  O86      1.0000 0.66838  0.32586  0.49720  Biso   1.000  O
  O87      1.0000 0.37224  0.32586  0.62088  Biso   1.000  O
  O88      1.0000 0.66838  0.15339  0.79334  Biso   1.000  O
  O89      1.0000 0.49591  0.32586  0.49720  Biso   1.000  O
  O90      1.0000 0.66838  0.02971  0.79334  Biso   1.000  O
  O91      1.0000 0.66838  0.15339  0.49720  Biso   1.000  O
  O92      1.0000 0.49591  0.32586  0.79334  Biso   1.000  O
  O93      1.0000 0.66838  0.02971  0.62088  Biso   1.000  O
  O94      1.0000 0.37224  0.32586  0.79334  Biso   1.000  O
  O95      1.0000 0.11236  0.58961  0.05710  Biso   1.000  O
  O96      1.0000 0.93989  0.88575  0.22956  Biso   1.000  O
  O97      1.0000 0.23604  0.58961  0.05710  Biso   1.000  O
  O98      1.0000 0.93989  0.76208  0.35324  Biso   1.000  O
  O99      1.0000 0.23604  0.58961  0.22956  Biso   1.000  O
  O100     1.0000 0.93989  0.88575  0.05710  Biso   1.000  O
  O101     1.0000 0.11236  0.58961  0.35324  Biso   1.000  O
  O102     1.0000 0.93989  0.76208  0.05710  Biso   1.000  O
  O103     1.0000 0.93989  0.58961  0.35324  Biso   1.000  O
  O104     1.0000 0.11236  0.88575  0.05710  Biso   1.000  O
  O105     1.0000 0.93989  0.58961  0.22956  Biso   1.000  O
  O106     1.0000 0.23604  0.76208  0.05710  Biso   1.000  O
