data_image0
_cell_length_a       18.266
_cell_length_b       18.266
_cell_length_c       18.266
_cell_angle_alpha    60
_cell_angle_beta     60
_cell_angle_gamma    60

_symmetry_space_group_name_H-M    "P 1"
_symmetry_int_tables_number       1

loop_
  _symmetry_equiv_pos_as_xyz
  'x, y, z'

loop_
  _atom_site_label
  _atom_site_occupancy
  _atom_site_fract_x
  _atom_site_fract_y
  _atom_site_fract_z
  _atom_site_thermal_displace_type
  _atom_site_B_iso_or_equiv
  _atom_site_type_symbol
  Zn1      1.0000 0.29338  0.29338  0.29338  Biso   1.000  Zn
  Zn2      1.0000 0.29338  0.29338  0.11986  Biso   1.000  Zn
  Zn3      1.0000 0.29338  0.11986  0.29338  Biso   1.000  Zn
  Zn4      1.0000 0.11986  0.29338  0.29338  Biso   1.000  Zn
  Zn5      1.0000 0.70662  0.70662  0.70662  Biso   1.000  Zn
  Zn6      1.0000 0.70662  0.70662  0.88014  Biso   1.000  Zn
  Zn7      1.0000 0.88014  0.70662  0.70662  Biso   1.000  Zn
  Zn8      1.0000 0.70662  0.88014  0.70662  Biso   1.000  Zn
  H1       1.0000 0.15460  0.45520  0.45520  Biso   1.000  H
  H2       1.0000 0.45520  0.15460  0.93500  Biso   1.000  H
  H3       1.0000 0.45520  0.93500  0.15460  Biso   1.000  H
  H4       1.0000 0.93500  0.45520  0.45520  Biso   1.000  H
  H5       1.0000 0.15460  0.45520  0.93500  Biso   1.000  H
  H6       1.0000 0.45520  0.93500  0.45520  Biso   1.000  H
  H7       1.0000 0.45520  0.15460  0.45520  Biso   1.000  H
  H8       1.0000 0.93500  0.45520  0.15460  Biso   1.000  H
  H9       1.0000 0.15460  0.93500  0.45520  Biso   1.000  H
  H10      1.0000 0.45520  0.45520  0.15460  Biso   1.000  H
  H11      1.0000 0.45520  0.45520  0.93500  Biso   1.000  H
  H12      1.0000 0.93500  0.15460  0.45520  Biso   1.000  H
  H13      1.0000 0.54480  0.84540  0.54480  Biso   1.000  H
  H14      1.0000 0.84540  0.54480  0.06500  Biso   1.000  H
  H15      1.0000 0.06500  0.54480  0.84540  Biso   1.000  H
  H16      1.0000 0.54480  0.06500  0.54480  Biso   1.000  H
  H17      1.0000 0.54480  0.84540  0.06500  Biso   1.000  H
  H18      1.0000 0.06500  0.54480  0.54480  Biso   1.000  H
  H19      1.0000 0.84540  0.54480  0.54480  Biso   1.000  H
  H20      1.0000 0.54480  0.06500  0.84540  Biso   1.000  H
  H21      1.0000 0.06500  0.84540  0.54480  Biso   1.000  H
  H22      1.0000 0.54480  0.54480  0.84540  Biso   1.000  H
  H23      1.0000 0.54480  0.54480  0.06500  Biso   1.000  H
  H24      1.0000 0.84540  0.06500  0.54480  Biso   1.000  H
  C1       1.0000 0.09270  0.47310  0.47310  Biso   1.000  C
  C2       1.0000 0.47310  0.09270  0.96110  Biso   1.000  C
  C3       1.0000 0.47310  0.96110  0.09270  Biso   1.000  C
  C4       1.0000 0.96110  0.47310  0.47310  Biso   1.000  C
  C5       1.0000 0.09270  0.47310  0.96110  Biso   1.000  C
  C6       1.0000 0.47310  0.96110  0.47310  Biso   1.000  C
  C7       1.0000 0.47310  0.09270  0.47310  Biso   1.000  C
  C8       1.0000 0.96110  0.47310  0.09270  Biso   1.000  C
  C9       1.0000 0.09270  0.96110  0.47310  Biso   1.000  C
  C10      1.0000 0.47310  0.47310  0.09270  Biso   1.000  C
  C11      1.0000 0.47310  0.47310  0.96110  Biso   1.000  C
  C12      1.0000 0.96110  0.09270  0.47310  Biso   1.000  C
  C13      1.0000 0.52690  0.90730  0.52690  Biso   1.000  C
  C14      1.0000 0.90730  0.52690  0.03890  Biso   1.000  C
  C15      1.0000 0.03890  0.52690  0.90730  Biso   1.000  C
  C16      1.0000 0.52690  0.03890  0.52690  Biso   1.000  C
  C17      1.0000 0.52690  0.90730  0.03890  Biso   1.000  C
  C18      1.0000 0.03890  0.52690  0.52690  Biso   1.000  C
  C19      1.0000 0.90730  0.52690  0.52690  Biso   1.000  C
  C20      1.0000 0.52690  0.03890  0.90730  Biso   1.000  C
  C21      1.0000 0.03890  0.90730  0.52690  Biso   1.000  C
  C22      1.0000 0.52690  0.52690  0.90730  Biso   1.000  C
  C23      1.0000 0.52690  0.52690  0.03890  Biso   1.000  C
  C24      1.0000 0.90730  0.03890  0.52690  Biso   1.000  C
  C25      1.0000 0.11130  0.38870  0.38870  Biso   1.000  C
  C26      1.0000 0.05380  0.44620  0.44620  Biso   1.000  C
  C27      1.0000 0.38870  0.11130  0.11130  Biso   1.000  C
  C28      1.0000 0.44620  0.05380  0.05380  Biso   1.000  C
  C29      1.0000 0.11130  0.38870  0.11130  Biso   1.000  C
  C30      1.0000 0.05380  0.44620  0.05380  Biso   1.000  C
  C31      1.0000 0.38870  0.11130  0.38870  Biso   1.000  C
  C32      1.0000 0.44620  0.05380  0.44620  Biso   1.000  C
  C33      1.0000 0.11130  0.11130  0.38870  Biso   1.000  C
  C34      1.0000 0.05380  0.05380  0.44620  Biso   1.000  C
  C35      1.0000 0.38870  0.38870  0.11130  Biso   1.000  C
  C36      1.0000 0.44620  0.44620  0.05380  Biso   1.000  C
  C37      1.0000 0.61130  0.88870  0.61130  Biso   1.000  C
  C38      1.0000 0.55380  0.94620  0.55380  Biso   1.000  C
  C39      1.0000 0.88870  0.61130  0.88870  Biso   1.000  C
  C40      1.0000 0.94620  0.55380  0.94620  Biso   1.000  C
  C41      1.0000 0.61130  0.88870  0.88870  Biso   1.000  C
  C42      1.0000 0.55380  0.94620  0.94620  Biso   1.000  C
  C43      1.0000 0.88870  0.61130  0.61130  Biso   1.000  C
  C44      1.0000 0.94620  0.55380  0.55380  Biso   1.000  C
  C45      1.0000 0.88870  0.88870  0.61130  Biso   1.000  C
  C46      1.0000 0.94620  0.94620  0.55380  Biso   1.000  C
  C47      1.0000 0.61130  0.61130  0.88870  Biso   1.000  C
  C48      1.0000 0.55380  0.55380  0.94620  Biso   1.000  C
  O1       1.0000 0.25000  0.25000  0.25000  Biso   1.000  O
  O2       1.0000 0.75000  0.75000  0.75000  Biso   1.000  O
  O3       1.0000 0.19777  0.36600  0.36600  Biso   1.000  O
  O4       1.0000 0.36600  0.19777  0.07023  Biso   1.000  O
  O5       1.0000 0.36600  0.07023  0.19777  Biso   1.000  O
  O6       1.0000 0.07023  0.36600  0.36600  Biso   1.000  O
  O7       1.0000 0.19777  0.36600  0.07023  Biso   1.000  O
  O8       1.0000 0.36600  0.07023  0.36600  Biso   1.000  O
  O9       1.0000 0.36600  0.19777  0.36600  Biso   1.000  O
  O10      1.0000 0.07023  0.36600  0.19777  Biso   1.000  O
  O11      1.0000 0.19777  0.07023  0.36600  Biso   1.000  O
  O12      1.0000 0.36600  0.36600  0.19777  Biso   1.000  O
  O13      1.0000 0.36600  0.36600  0.07023  Biso   1.000  O
  O14      1.0000 0.07023  0.19777  0.36600  Biso   1.000  O
  O15      1.0000 0.63400  0.80223  0.63400  Biso   1.000  O
  O16      1.0000 0.80223  0.63400  0.92977  Biso   1.000  O
  O17      1.0000 0.92977  0.63400  0.80223  Biso   1.000  O
  O18      1.0000 0.63400  0.92977  0.63400  Biso   1.000  O
  O19      1.0000 0.63400  0.80223  0.92977  Biso   1.000  O
  O20      1.0000 0.92977  0.63400  0.63400  Biso   1.000  O
  O21      1.0000 0.80223  0.63400  0.63400  Biso   1.000  O
  O22      1.0000 0.63400  0.92977  0.80223  Biso   1.000  O
  O23      1.0000 0.92977  0.80223  0.63400  Biso   1.000  O
  O24      1.0000 0.63400  0.63400  0.80223  Biso   1.000  O
  O25      1.0000 0.63400  0.63400  0.92977  Biso   1.000  O
  O26      1.0000 0.80223  0.92977  0.63400  Biso   1.000  O
  Zn9      1.0000 0.50370  0.52128  0.33581  Biso   1.000  Zn
  Zn10     1.0000 0.50370  0.52128  0.51012  Biso   1.000  Zn
  Zn11     1.0000 0.32939  0.52128  0.51012  Biso   1.000  Zn
  Zn12     1.0000 0.50370  0.34697  0.51012  Biso   1.000  Zn
  Zn13     1.0000 0.91820  0.93580  0.09895  Biso   1.000  Zn
  Zn14     1.0000 0.91820  0.93580  0.92464  Biso   1.000  Zn
  Zn15     1.0000 0.91820  0.11011  0.92464  Biso   1.000  Zn
  Zn16     1.0000 0.09251  0.93580  0.92464  Biso   1.000  Zn
  H25      1.0000 0.66600  0.68359  0.15364  Biso   1.000  H
  H26      1.0000 0.66600  0.68359  0.37103  Biso   1.000  H
  H27      1.0000 0.14720  0.38218  0.67243  Biso   1.000  H
  H28      1.0000 0.36460  0.16479  0.67243  Biso   1.000  H
  H29      1.0000 0.66600  0.16479  0.37103  Biso   1.000  H
  H30      1.0000 0.66600  0.38218  0.15364  Biso   1.000  H
  H31      1.0000 0.14720  0.68359  0.67243  Biso   1.000  H
  H32      1.0000 0.36460  0.68359  0.67243  Biso   1.000  H
  H33      1.0000 0.66600  0.38218  0.67243  Biso   1.000  H
  H34      1.0000 0.66600  0.16479  0.67243  Biso   1.000  H
  H35      1.0000 0.14720  0.68359  0.37103  Biso   1.000  H
  H36      1.0000 0.36460  0.68359  0.15364  Biso   1.000  H
  H37      1.0000 0.75590  0.77349  0.28113  Biso   1.000  H
  H38      1.0000 0.75590  0.77349  0.06374  Biso   1.000  H
  H39      1.0000 0.05730  0.29228  0.76233  Biso   1.000  H
  H40      1.0000 0.27470  0.07489  0.76233  Biso   1.000  H
  H41      1.0000 0.27470  0.77349  0.06374  Biso   1.000  H
  H42      1.0000 0.05730  0.77349  0.28113  Biso   1.000  H
  H43      1.0000 0.75590  0.29228  0.76233  Biso   1.000  H
  H44      1.0000 0.75590  0.07489  0.76233  Biso   1.000  H
  H45      1.0000 0.05730  0.77349  0.76233  Biso   1.000  H
  H46      1.0000 0.27470  0.77349  0.76233  Biso   1.000  H
  H47      1.0000 0.75590  0.29228  0.06374  Biso   1.000  H
  H48      1.0000 0.75590  0.07489  0.28113  Biso   1.000  H
  C49      1.0000 0.68425  0.70184  0.18068  Biso   1.000  C
  C50      1.0000 0.68425  0.70184  0.30749  Biso   1.000  C
  C51      1.0000 0.17424  0.31864  0.69068  Biso   1.000  C
  C52      1.0000 0.30106  0.19183  0.69068  Biso   1.000  C
  C53      1.0000 0.68425  0.19183  0.30749  Biso   1.000  C
  C54      1.0000 0.68425  0.31864  0.18068  Biso   1.000  C
  C55      1.0000 0.17424  0.70184  0.69068  Biso   1.000  C
  C56      1.0000 0.30106  0.70184  0.69068  Biso   1.000  C
  C57      1.0000 0.68425  0.31864  0.69068  Biso   1.000  C
  C58      1.0000 0.68425  0.19183  0.69068  Biso   1.000  C
  C59      1.0000 0.17424  0.70184  0.30749  Biso   1.000  C
  C60      1.0000 0.30106  0.70184  0.18068  Biso   1.000  C
  C61      1.0000 0.73765  0.75524  0.25409  Biso   1.000  C
  C62      1.0000 0.73765  0.75524  0.12728  Biso   1.000  C
  C63      1.0000 0.12085  0.26524  0.74408  Biso   1.000  C
  C64      1.0000 0.24766  0.13843  0.74408  Biso   1.000  C
  C65      1.0000 0.24766  0.75524  0.12728  Biso   1.000  C
  C66      1.0000 0.12085  0.75524  0.25409  Biso   1.000  C
  C67      1.0000 0.73765  0.26524  0.74408  Biso   1.000  C
  C68      1.0000 0.73765  0.13843  0.74408  Biso   1.000  C
  C69      1.0000 0.12085  0.75524  0.74408  Biso   1.000  C
  C70      1.0000 0.24766  0.75524  0.74408  Biso   1.000  C
  C71      1.0000 0.73765  0.26524  0.12728  Biso   1.000  C
  C72      1.0000 0.73765  0.13843  0.25409  Biso   1.000  C
  C73      1.0000 0.59898  0.61656  0.32769  Biso   1.000  C
  C74      1.0000 0.65714  0.67473  0.26952  Biso   1.000  C
  C75      1.0000 0.32125  0.33884  0.60541  Biso   1.000  C
  C76      1.0000 0.26309  0.28068  0.66357  Biso   1.000  C
  C77      1.0000 0.59898  0.33884  0.32769  Biso   1.000  C
  C78      1.0000 0.65714  0.28067  0.26952  Biso   1.000  C
  C79      1.0000 0.32125  0.61656  0.60541  Biso   1.000  C
  C80      1.0000 0.26309  0.67473  0.66357  Biso   1.000  C
  C81      1.0000 0.59898  0.33884  0.60541  Biso   1.000  C
  C82      1.0000 0.65714  0.28068  0.66357  Biso   1.000  C
  C83      1.0000 0.32125  0.61656  0.32769  Biso   1.000  C
  C84      1.0000 0.26309  0.67473  0.26952  Biso   1.000  C
  C85      1.0000 0.82292  0.84051  0.10708  Biso   1.000  C
  C86      1.0000 0.76476  0.78235  0.16525  Biso   1.000  C
  C87      1.0000 0.10065  0.11824  0.82936  Biso   1.000  C
  C88      1.0000 0.15881  0.17640  0.77119  Biso   1.000  C
  C89      1.0000 0.10065  0.84051  0.10708  Biso   1.000  C
  C90      1.0000 0.15881  0.78235  0.16525  Biso   1.000  C
  C91      1.0000 0.82292  0.11824  0.82936  Biso   1.000  C
  C92      1.0000 0.76476  0.17640  0.77119  Biso   1.000  C
  C93      1.0000 0.10065  0.84051  0.82936  Biso   1.000  C
  C94      1.0000 0.15881  0.78235  0.77119  Biso   1.000  C
  C95      1.0000 0.82292  0.11824  0.10708  Biso   1.000  C
  C96      1.0000 0.76476  0.17640  0.16525  Biso   1.000  C
  O27      1.0000 0.46012  0.47770  0.46655  Biso   1.000  O
  O28      1.0000 0.96179  0.97937  0.96822  Biso   1.000  O
  O29      1.0000 0.57663  0.59422  0.28877  Biso   1.000  O
  O30      1.0000 0.57663  0.59422  0.41129  Biso   1.000  O
  O31      1.0000 0.28233  0.42245  0.58307  Biso   1.000  O
  O32      1.0000 0.40486  0.29992  0.58307  Biso   1.000  O
  O33      1.0000 0.57663  0.29992  0.41129  Biso   1.000  O
  O34      1.0000 0.57663  0.42245  0.28877  Biso   1.000  O
  O35      1.0000 0.28233  0.59422  0.58307  Biso   1.000  O
  O36      1.0000 0.40486  0.59422  0.58307  Biso   1.000  O
  O37      1.0000 0.57663  0.42245  0.58307  Biso   1.000  O
  O38      1.0000 0.57663  0.29992  0.58307  Biso   1.000  O
  O39      1.0000 0.28233  0.59422  0.41129  Biso   1.000  O
  O40      1.0000 0.40486  0.59422  0.28877  Biso   1.000  O
  O41      1.0000 0.84527  0.86285  0.14600  Biso   1.000  O
  O42      1.0000 0.84527  0.86285  0.02347  Biso   1.000  O
  O43      1.0000 0.01704  0.15715  0.85170  Biso   1.000  O
  O44      1.0000 0.13957  0.03463  0.85170  Biso   1.000  O
  O45      1.0000 0.13957  0.86285  0.02347  Biso   1.000  O
  O46      1.0000 0.01704  0.86285  0.14600  Biso   1.000  O
  O47      1.0000 0.84527  0.15715  0.85170  Biso   1.000  O
  O48      1.0000 0.84527  0.03463  0.85170  Biso   1.000  O
  O49      1.0000 0.01704  0.86285  0.85170  Biso   1.000  O
  O50      1.0000 0.13957  0.86285  0.85170  Biso   1.000  O
  O51      1.0000 0.84527  0.15715  0.02347  Biso   1.000  O
  O52      1.0000 0.84527  0.03463  0.14600  Biso   1.000  O
