data_image0
_cell_length_a       18.266
_cell_length_b       18.266
_cell_length_c       18.266
_cell_angle_alpha    60
_cell_angle_beta     60
_cell_angle_gamma    60

_symmetry_space_group_name_H-M    "P 1"
_symmetry_int_tables_number       1

loop_
  _symmetry_equiv_pos_as_xyz
  'x, y, z'

loop_
  _atom_site_label
  _atom_site_occupancy
  _atom_site_fract_x
  _atom_site_fract_y
  _atom_site_fract_z
  _atom_site_thermal_displace_type
  _atom_site_B_iso_or_equiv
  _atom_site_type_symbol
  Zn1      1.0000 0.29338  0.29338  0.29338  Biso   1.000  Zn
  Zn2      1.0000 0.29338  0.29338  0.11986  Biso   1.000  Zn
  Zn3      1.0000 0.29338  0.11986  0.29338  Biso   1.000  Zn
  Zn4      1.0000 0.11986  0.29338  0.29338  Biso   1.000  Zn
  Zn5      1.0000 0.70662  0.70662  0.70662  Biso   1.000  Zn
  Zn6      1.0000 0.70662  0.70662  0.88014  Biso   1.000  Zn
  Zn7      1.0000 0.88014  0.70662  0.70662  Biso   1.000  Zn
  Zn8      1.0000 0.70662  0.88014  0.70662  Biso   1.000  Zn
  H1       1.0000 0.15460  0.45520  0.45520  Biso   1.000  H
  H2       1.0000 0.45520  0.15460  0.93500  Biso   1.000  H
  H3       1.0000 0.45520  0.93500  0.15460  Biso   1.000  H
  H4       1.0000 0.93500  0.45520  0.45520  Biso   1.000  H
  H5       1.0000 0.15460  0.45520  0.93500  Biso   1.000  H
  H6       1.0000 0.45520  0.93500  0.45520  Biso   1.000  H
  H7       1.0000 0.45520  0.15460  0.45520  Biso   1.000  H
  H8       1.0000 0.93500  0.45520  0.15460  Biso   1.000  H
  H9       1.0000 0.15460  0.93500  0.45520  Biso   1.000  H
  H10      1.0000 0.45520  0.45520  0.15460  Biso   1.000  H
  H11      1.0000 0.45520  0.45520  0.93500  Biso   1.000  H
  H12      1.0000 0.93500  0.15460  0.45520  Biso   1.000  H
  H13      1.0000 0.54480  0.84540  0.54480  Biso   1.000  H
  H14      1.0000 0.84540  0.54480  0.06500  Biso   1.000  H
  H15      1.0000 0.06500  0.54480  0.84540  Biso   1.000  H
  H16      1.0000 0.54480  0.06500  0.54480  Biso   1.000  H
  H17      1.0000 0.54480  0.84540  0.06500  Biso   1.000  H
  H18      1.0000 0.06500  0.54480  0.54480  Biso   1.000  H
  H19      1.0000 0.84540  0.54480  0.54480  Biso   1.000  H
  H20      1.0000 0.54480  0.06500  0.84540  Biso   1.000  H
  H21      1.0000 0.06500  0.84540  0.54480  Biso   1.000  H
  H22      1.0000 0.54480  0.54480  0.84540  Biso   1.000  H
  H23      1.0000 0.54480  0.54480  0.06500  Biso   1.000  H
  H24      1.0000 0.84540  0.06500  0.54480  Biso   1.000  H
  C1       1.0000 0.09270  0.47310  0.47310  Biso   1.000  C
  C2       1.0000 0.47310  0.09270  0.96110  Biso   1.000  C
  C3       1.0000 0.47310  0.96110  0.09270  Biso   1.000  C
  C4       1.0000 0.96110  0.47310  0.47310  Biso   1.000  C
  C5       1.0000 0.09270  0.47310  0.96110  Biso   1.000  C
  C6       1.0000 0.47310  0.96110  0.47310  Biso   1.000  C
  C7       1.0000 0.47310  0.09270  0.47310  Biso   1.000  C
  C8       1.0000 0.96110  0.47310  0.09270  Biso   1.000  C
  C9       1.0000 0.09270  0.96110  0.47310  Biso   1.000  C
  C10      1.0000 0.47310  0.47310  0.09270  Biso   1.000  C
  C11      1.0000 0.47310  0.47310  0.96110  Biso   1.000  C
  C12      1.0000 0.96110  0.09270  0.47310  Biso   1.000  C
  C13      1.0000 0.52690  0.90730  0.52690  Biso   1.000  C
  C14      1.0000 0.90730  0.52690  0.03890  Biso   1.000  C
  C15      1.0000 0.03890  0.52690  0.90730  Biso   1.000  C
  C16      1.0000 0.52690  0.03890  0.52690  Biso   1.000  C
  C17      1.0000 0.52690  0.90730  0.03890  Biso   1.000  C
  C18      1.0000 0.03890  0.52690  0.52690  Biso   1.000  C
  C19      1.0000 0.90730  0.52690  0.52690  Biso   1.000  C
  C20      1.0000 0.52690  0.03890  0.90730  Biso   1.000  C
  C21      1.0000 0.03890  0.90730  0.52690  Biso   1.000  C
  C22      1.0000 0.52690  0.52690  0.90730  Biso   1.000  C
  C23      1.0000 0.52690  0.52690  0.03890  Biso   1.000  C
  C24      1.0000 0.90730  0.03890  0.52690  Biso   1.000  C
  C25      1.0000 0.11130  0.38870  0.38870  Biso   1.000  C
  C26      1.0000 0.05380  0.44620  0.44620  Biso   1.000  C
  C27      1.0000 0.38870  0.11130  0.11130  Biso   1.000  C
  C28      1.0000 0.44620  0.05380  0.05380  Biso   1.000  C
  C29      1.0000 0.11130  0.38870  0.11130  Biso   1.000  C
  C30      1.0000 0.05380  0.44620  0.05380  Biso   1.000  C
  C31      1.0000 0.38870  0.11130  0.38870  Biso   1.000  C
  C32      1.0000 0.44620  0.05380  0.44620  Biso   1.000  C
  C33      1.0000 0.11130  0.11130  0.38870  Biso   1.000  C
  C34      1.0000 0.05380  0.05380  0.44620  Biso   1.000  C
  C35      1.0000 0.38870  0.38870  0.11130  Biso   1.000  C
  C36      1.0000 0.44620  0.44620  0.05380  Biso   1.000  C
  C37      1.0000 0.61130  0.88870  0.61130  Biso   1.000  C
  C38      1.0000 0.55380  0.94620  0.55380  Biso   1.000  C
  C39      1.0000 0.88870  0.61130  0.88870  Biso   1.000  C
  C40      1.0000 0.94620  0.55380  0.94620  Biso   1.000  C
  C41      1.0000 0.61130  0.88870  0.88870  Biso   1.000  C
  C42      1.0000 0.55380  0.94620  0.94620  Biso   1.000  C
  C43      1.0000 0.88870  0.61130  0.61130  Biso   1.000  C
  C44      1.0000 0.94620  0.55380  0.55380  Biso   1.000  C
  C45      1.0000 0.88870  0.88870  0.61130  Biso   1.000  C
  C46      1.0000 0.94620  0.94620  0.55380  Biso   1.000  C
  C47      1.0000 0.61130  0.61130  0.88870  Biso   1.000  C
  C48      1.0000 0.55380  0.55380  0.94620  Biso   1.000  C
  O1       1.0000 0.25000  0.25000  0.25000  Biso   1.000  O
  O2       1.0000 0.75000  0.75000  0.75000  Biso   1.000  O
  O3       1.0000 0.19777  0.36600  0.36600  Biso   1.000  O
  O4       1.0000 0.36600  0.19777  0.07023  Biso   1.000  O
  O5       1.0000 0.36600  0.07023  0.19777  Biso   1.000  O
  O6       1.0000 0.07023  0.36600  0.36600  Biso   1.000  O
  O7       1.0000 0.19777  0.36600  0.07023  Biso   1.000  O
  O8       1.0000 0.36600  0.07023  0.36600  Biso   1.000  O
  O9       1.0000 0.36600  0.19777  0.36600  Biso   1.000  O
  O10      1.0000 0.07023  0.36600  0.19777  Biso   1.000  O
  O11      1.0000 0.19777  0.07023  0.36600  Biso   1.000  O
  O12      1.0000 0.36600  0.36600  0.19777  Biso   1.000  O
  O13      1.0000 0.36600  0.36600  0.07023  Biso   1.000  O
  O14      1.0000 0.07023  0.19777  0.36600  Biso   1.000  O
  O15      1.0000 0.63400  0.80223  0.63400  Biso   1.000  O
  O16      1.0000 0.80223  0.63400  0.92977  Biso   1.000  O
  O17      1.0000 0.92977  0.63400  0.80223  Biso   1.000  O
  O18      1.0000 0.63400  0.92977  0.63400  Biso   1.000  O
  O19      1.0000 0.63400  0.80223  0.92977  Biso   1.000  O
  O20      1.0000 0.92977  0.63400  0.63400  Biso   1.000  O
  O21      1.0000 0.80223  0.63400  0.63400  Biso   1.000  O
  O22      1.0000 0.63400  0.92977  0.80223  Biso   1.000  O
  O23      1.0000 0.92977  0.80223  0.63400  Biso   1.000  O
  O24      1.0000 0.63400  0.63400  0.80223  Biso   1.000  O
  O25      1.0000 0.63400  0.63400  0.92977  Biso   1.000  O
  O26      1.0000 0.80223  0.92977  0.63400  Biso   1.000  O
  Zn9      1.0000 0.07527  0.58948  0.58811  Biso   1.000  Zn
  Zn10     1.0000 0.48839  0.17624  0.00142  Biso   1.000  Zn
  Zn11     1.0000 0.48839  0.00164  0.00142  Biso   1.000  Zn
  Zn12     1.0000 0.07527  0.41488  0.58811  Biso   1.000  Zn
  Zn13     1.0000 0.07481  0.58982  0.41327  Biso   1.000  Zn
  Zn14     1.0000 0.90027  0.58963  0.58821  Biso   1.000  Zn
  Zn15     1.0000 0.48885  0.00130  0.17626  Biso   1.000  Zn
  Zn16     1.0000 0.66338  0.00149  0.00132  Biso   1.000  Zn
  H25      1.0000 0.23971  0.23396  0.44475  Biso   1.000  H
  H26      1.0000 0.23180  0.45001  0.23335  Biso   1.000  H
  H27      1.0000 0.93632  0.23504  0.74802  Biso   1.000  H
  H28      1.0000 0.71755  0.44749  0.75032  Biso   1.000  H
  H29      1.0000 0.24052  0.44949  0.74552  Biso   1.000  H
  H30      1.0000 0.32395  0.84179  0.14478  Biso   1.000  H
  H31      1.0000 0.33186  0.83859  0.35618  Biso   1.000  H
  H32      1.0000 0.62734  0.84271  0.84151  Biso   1.000  H
  H33      1.0000 0.84610  0.83871  0.83921  Biso   1.000  H
  H34      1.0000 0.32313  0.35888  0.84401  Biso   1.000  H
  H35      1.0000 0.32394  0.35716  0.14478  Biso   1.000  H
  H36      1.0000 0.33186  0.14111  0.35618  Biso   1.000  H
  H37      1.0000 0.62734  0.35608  0.84151  Biso   1.000  H
  H38      1.0000 0.84610  0.14363  0.83921  Biso   1.000  H
  H39      1.0000 0.32313  0.14163  0.84401  Biso   1.000  H
  H40      1.0000 0.23971  0.74932  0.44475  Biso   1.000  H
  H41      1.0000 0.23180  0.75253  0.23335  Biso   1.000  H
  H42      1.0000 0.93631  0.74841  0.74802  Biso   1.000  H
  H43      1.0000 0.71755  0.75240  0.75032  Biso   1.000  H
  H44      1.0000 0.24052  0.23224  0.74552  Biso   1.000  H
  H45      1.0000 0.71844  0.75122  0.44685  Biso   1.000  H
  H46      1.0000 0.93198  0.75233  0.23106  Biso   1.000  H
  H47      1.0000 0.84522  0.83990  0.14268  Biso   1.000  H
  H48      1.0000 0.63167  0.83879  0.35847  Biso   1.000  H
  C49      1.0000 0.16941  0.40637  0.40840  Biso   1.000  C
  C50      1.0000 0.22891  0.34837  0.34729  Biso   1.000  C
  C51      1.0000 0.25748  0.25962  0.38264  Biso   1.000  C
  C52      1.0000 0.25117  0.38801  0.25932  Biso   1.000  C
  C53      1.0000 0.89077  0.40955  0.68511  Biso   1.000  C
  C54      1.0000 0.83676  0.35114  0.74033  Biso   1.000  C
  C55      1.0000 0.87422  0.26120  0.76599  Biso   1.000  C
  C56      1.0000 0.74521  0.38559  0.76779  Biso   1.000  C
  C57      1.0000 0.25640  0.38748  0.76559  Biso   1.000  C
  C58      1.0000 0.39425  0.90759  0.18113  Biso   1.000  C
  C59      1.0000 0.33475  0.84798  0.24224  Biso   1.000  C
  C60      1.0000 0.30618  0.82312  0.20689  Biso   1.000  C
  C61      1.0000 0.31249  0.82192  0.33021  Biso   1.000  C
  C62      1.0000 0.67288  0.90880  0.90442  Biso   1.000  C
  C63      1.0000 0.72689  0.85159  0.84920  Biso   1.000  C
  C64      1.0000 0.68944  0.82474  0.82354  Biso   1.000  C
  C65      1.0000 0.81844  0.82194  0.82174  Biso   1.000  C
  C66      1.0000 0.30725  0.33282  0.82394  Biso   1.000  C
  C67      1.0000 0.39425  0.18475  0.18113  Biso   1.000  C
  C68      1.0000 0.33475  0.24275  0.24224  Biso   1.000  C
  C69      1.0000 0.30617  0.33150  0.20689  Biso   1.000  C
  C70      1.0000 0.31249  0.20311  0.33021  Biso   1.000  C
  C71      1.0000 0.67289  0.18157  0.90442  Biso   1.000  C
  C72      1.0000 0.72690  0.23998  0.84920  Biso   1.000  C
  C73      1.0000 0.68944  0.32992  0.82354  Biso   1.000  C
  C74      1.0000 0.81845  0.20553  0.82174  Biso   1.000  C
  C75      1.0000 0.30726  0.20364  0.82394  Biso   1.000  C
  C76      1.0000 0.16941  0.68353  0.40840  Biso   1.000  C
  C77      1.0000 0.22891  0.74314  0.34729  Biso   1.000  C
  C78      1.0000 0.25748  0.76800  0.38264  Biso   1.000  C
  C79      1.0000 0.25117  0.76920  0.25932  Biso   1.000  C
  C80      1.0000 0.89077  0.68232  0.68511  Biso   1.000  C
  C81      1.0000 0.83676  0.73952  0.74033  Biso   1.000  C
  C82      1.0000 0.87421  0.76638  0.76599  Biso   1.000  C
  C83      1.0000 0.74521  0.76918  0.76779  Biso   1.000  C
  C84      1.0000 0.25640  0.25830  0.76559  Biso   1.000  C
  C85      1.0000 0.89745  0.68433  0.40161  Biso   1.000  C
  C86      1.0000 0.83534  0.74144  0.34949  Biso   1.000  C
  C87      1.0000 0.74559  0.76860  0.38494  Biso   1.000  C
  C88      1.0000 0.86998  0.76980  0.25812  Biso   1.000  C
  C89      1.0000 0.16792  0.41135  0.67712  Biso   1.000  C
  C90      1.0000 0.22783  0.34974  0.74043  Biso   1.000  C
  C91      1.0000 0.66621  0.90679  0.18792  Biso   1.000  C
  C92      1.0000 0.72831  0.84968  0.24004  Biso   1.000  C
  C93      1.0000 0.81806  0.82252  0.20459  Biso   1.000  C
  C94      1.0000 0.69367  0.82132  0.33141  Biso   1.000  C
  C95      1.0000 0.39573  0.17977  0.91241  Biso   1.000  C
  C96      1.0000 0.33583  0.24137  0.84910  Biso   1.000  C
  O27      1.0000 0.14934  0.49164  0.36257  Biso   1.000  O
  O28      1.0000 0.15064  0.36254  0.49248  Biso   1.000  O
  O29      1.0000 0.85093  0.49262  0.65865  Biso   1.000  O
  O30      1.0000 0.97693  0.36552  0.66264  Biso   1.000  O
  O31      1.0000 0.14885  0.49362  0.65984  Biso   1.000  O
  O32      1.0000 0.41432  0.92695  0.22696  Biso   1.000  O
  O33      1.0000 0.41301  0.92906  0.09705  Biso   1.000  O
  O34      1.0000 0.71272  0.92557  0.93088  Biso   1.000  O
  O35      1.0000 0.58672  0.92847  0.92689  Biso   1.000  O
  O36      1.0000 0.41480  0.22570  0.92969  Biso   1.000  O
  O37      1.0000 0.41432  0.09948  0.22696  Biso   1.000  O
  O38      1.0000 0.41301  0.22858  0.09705  Biso   1.000  O
  O39      1.0000 0.71272  0.09850  0.93088  Biso   1.000  O
  O40      1.0000 0.58673  0.22560  0.92689  Biso   1.000  O
  O41      1.0000 0.41480  0.09750  0.92969  Biso   1.000  O
  O42      1.0000 0.14934  0.66416  0.36257  Biso   1.000  O
  O43      1.0000 0.15064  0.66206  0.49248  Biso   1.000  O
  O44      1.0000 0.85093  0.66555  0.65865  Biso   1.000  O
  O45      1.0000 0.97693  0.66265  0.66264  Biso   1.000  O
  O46      1.0000 0.14885  0.36542  0.65984  Biso   1.000  O
  O47      1.0000 0.03213  0.54574  0.54411  Biso   1.000  O
  O48      1.0000 0.97811  0.66317  0.36327  Biso   1.000  O
  O49      1.0000 0.85232  0.66546  0.48449  Biso   1.000  O
  O50      1.0000 0.53152  0.04538  0.04542  Biso   1.000  O
  O51      1.0000 0.58554  0.92795  0.22626  Biso   1.000  O
  O52      1.0000 0.71133  0.92566  0.10504  Biso   1.000  O
