data_image0
_cell_length_a       24.311
_cell_length_b       24.311
_cell_length_c       24.311
_cell_angle_alpha    60
_cell_angle_beta     60
_cell_angle_gamma    60

_symmetry_space_group_name_H-M    "P 1"
_symmetry_int_tables_number       1

loop_
  _symmetry_equiv_pos_as_xyz
  'x, y, z'

loop_
  _atom_site_label
  _atom_site_occupancy
  _atom_site_fract_x
  _atom_site_fract_y
  _atom_site_fract_z
  _atom_site_thermal_displace_type
  _atom_site_B_iso_or_equiv
  _atom_site_type_symbol
  C1       1.0000 0.21725  0.34825  0.21725  Biso   1.000  C
  C2       1.0000 0.34825  0.21725  0.21725  Biso   1.000  C
  C3       1.0000 0.21725  0.21725  0.21725  Biso   1.000  C
  C4       1.0000 0.21725  0.21725  0.34825  Biso   1.000  C
  C5       1.0000 0.65175  0.78275  0.78275  Biso   1.000  C
  C6       1.0000 0.78275  0.65175  0.78275  Biso   1.000  C
  C7       1.0000 0.78275  0.78275  0.78275  Biso   1.000  C
  C8       1.0000 0.78275  0.78275  0.65175  Biso   1.000  C
  C9       1.0000 0.48660  0.32100  0.09620  Biso   1.000  C
  C10      1.0000 0.59510  0.33870  0.03310  Biso   1.000  C
  C11      1.0000 0.32100  0.48660  0.09620  Biso   1.000  C
  C12      1.0000 0.33870  0.59510  0.03310  Biso   1.000  C
  C13      1.0000 0.09620  0.09620  0.48660  Biso   1.000  C
  C14      1.0000 0.03310  0.03310  0.59510  Biso   1.000  C
  C15      1.0000 0.09620  0.09620  0.32100  Biso   1.000  C
  C16      1.0000 0.03310  0.03310  0.33870  Biso   1.000  C
  C17      1.0000 0.48660  0.09620  0.09620  Biso   1.000  C
  C18      1.0000 0.59510  0.03310  0.03310  Biso   1.000  C
  C19      1.0000 0.32100  0.09620  0.09620  Biso   1.000  C
  C20      1.0000 0.33870  0.03310  0.03310  Biso   1.000  C
  C21      1.0000 0.09620  0.48660  0.32100  Biso   1.000  C
  C22      1.0000 0.03310  0.59510  0.33870  Biso   1.000  C
  C23      1.0000 0.09620  0.32100  0.48660  Biso   1.000  C
  C24      1.0000 0.03310  0.33870  0.59510  Biso   1.000  C
  C25      1.0000 0.48660  0.09620  0.32100  Biso   1.000  C
  C26      1.0000 0.59510  0.03310  0.33870  Biso   1.000  C
  C27      1.0000 0.32100  0.09620  0.48660  Biso   1.000  C
  C28      1.0000 0.33870  0.03310  0.59510  Biso   1.000  C
  C29      1.0000 0.09620  0.32100  0.09620  Biso   1.000  C
  C30      1.0000 0.03310  0.33870  0.03310  Biso   1.000  C
  C31      1.0000 0.09620  0.48660  0.09620  Biso   1.000  C
  C32      1.0000 0.03310  0.59510  0.03310  Biso   1.000  C
  C33      1.0000 0.67900  0.51340  0.90380  Biso   1.000  C
  C34      1.0000 0.66130  0.40490  0.96690  Biso   1.000  C
  C35      1.0000 0.51340  0.67900  0.90380  Biso   1.000  C
  C36      1.0000 0.40490  0.66130  0.96690  Biso   1.000  C
  C37      1.0000 0.90380  0.90380  0.51340  Biso   1.000  C
  C38      1.0000 0.96690  0.96690  0.40490  Biso   1.000  C
  C39      1.0000 0.90380  0.90380  0.67900  Biso   1.000  C
  C40      1.0000 0.96690  0.96690  0.66130  Biso   1.000  C
  C41      1.0000 0.90380  0.51340  0.90380  Biso   1.000  C
  C42      1.0000 0.96690  0.40490  0.96690  Biso   1.000  C
  C43      1.0000 0.90380  0.67900  0.90380  Biso   1.000  C
  C44      1.0000 0.96690  0.66130  0.96690  Biso   1.000  C
  C45      1.0000 0.51340  0.90380  0.67900  Biso   1.000  C
  C46      1.0000 0.40490  0.96690  0.66130  Biso   1.000  C
  C47      1.0000 0.67900  0.90380  0.51340  Biso   1.000  C
  C48      1.0000 0.66130  0.96690  0.40490  Biso   1.000  C
  C49      1.0000 0.90380  0.51340  0.67900  Biso   1.000  C
  C50      1.0000 0.96690  0.40490  0.66130  Biso   1.000  C
  C51      1.0000 0.90380  0.67900  0.51340  Biso   1.000  C
  C52      1.0000 0.96690  0.66130  0.40490  Biso   1.000  C
  C53      1.0000 0.67900  0.90380  0.90380  Biso   1.000  C
  C54      1.0000 0.66130  0.96690  0.96690  Biso   1.000  C
  C55      1.0000 0.51340  0.90380  0.90380  Biso   1.000  C
  C56      1.0000 0.40490  0.96690  0.96690  Biso   1.000  C
  C57      1.0000 0.46550  0.36750  0.08350  Biso   1.000  C
  C58      1.0000 0.50380  0.41060  0.04280  Biso   1.000  C
  C59      1.0000 0.57410  0.38530  0.02030  Biso   1.000  C
  C60      1.0000 0.36750  0.46550  0.08350  Biso   1.000  C
  C61      1.0000 0.41060  0.50380  0.04280  Biso   1.000  C
  C62      1.0000 0.38530  0.57410  0.02030  Biso   1.000  C
  C63      1.0000 0.08350  0.08350  0.46550  Biso   1.000  C
  C64      1.0000 0.04280  0.04280  0.50380  Biso   1.000  C
  C65      1.0000 0.02030  0.02030  0.57410  Biso   1.000  C
  C66      1.0000 0.08350  0.08350  0.36750  Biso   1.000  C
  C67      1.0000 0.04280  0.04280  0.41060  Biso   1.000  C
  C68      1.0000 0.02030  0.02030  0.38530  Biso   1.000  C
  C69      1.0000 0.46550  0.08350  0.08350  Biso   1.000  C
  C70      1.0000 0.50380  0.04280  0.04280  Biso   1.000  C
  C71      1.0000 0.57410  0.02030  0.02030  Biso   1.000  C
  C72      1.0000 0.36750  0.08350  0.08350  Biso   1.000  C
  C73      1.0000 0.41060  0.04280  0.04280  Biso   1.000  C
  C74      1.0000 0.38530  0.02030  0.02030  Biso   1.000  C
  C75      1.0000 0.08350  0.46550  0.36750  Biso   1.000  C
  C76      1.0000 0.04280  0.50380  0.41060  Biso   1.000  C
  C77      1.0000 0.02030  0.57410  0.38530  Biso   1.000  C
  C78      1.0000 0.08350  0.36750  0.46550  Biso   1.000  C
  C79      1.0000 0.04280  0.41060  0.50380  Biso   1.000  C
  C80      1.0000 0.02030  0.38530  0.57410  Biso   1.000  C
  C81      1.0000 0.46550  0.08350  0.36750  Biso   1.000  C
  C82      1.0000 0.50380  0.04280  0.41060  Biso   1.000  C
  C83      1.0000 0.57410  0.02030  0.38530  Biso   1.000  C
  C84      1.0000 0.36750  0.08350  0.46550  Biso   1.000  C
  C85      1.0000 0.41060  0.04280  0.50380  Biso   1.000  C
  C86      1.0000 0.38530  0.02030  0.57410  Biso   1.000  C
  C87      1.0000 0.08350  0.36750  0.08350  Biso   1.000  C
  C88      1.0000 0.04280  0.41060  0.04280  Biso   1.000  C
  C89      1.0000 0.02030  0.38530  0.02030  Biso   1.000  C
  C90      1.0000 0.08350  0.46550  0.08350  Biso   1.000  C
  C91      1.0000 0.04280  0.50380  0.04280  Biso   1.000  C
  C92      1.0000 0.02030  0.57410  0.02030  Biso   1.000  C
  C93      1.0000 0.63250  0.53450  0.91650  Biso   1.000  C
  C94      1.0000 0.58940  0.49620  0.95720  Biso   1.000  C
  C95      1.0000 0.61470  0.42590  0.97970  Biso   1.000  C
  C96      1.0000 0.53450  0.63250  0.91650  Biso   1.000  C
  C97      1.0000 0.49620  0.58940  0.95720  Biso   1.000  C
  C98      1.0000 0.42590  0.61470  0.97970  Biso   1.000  C
  C99      1.0000 0.91650  0.91650  0.53450  Biso   1.000  C
  C100     1.0000 0.95720  0.95720  0.49620  Biso   1.000  C
  C101     1.0000 0.97970  0.97970  0.42590  Biso   1.000  C
  C102     1.0000 0.91650  0.91650  0.63250  Biso   1.000  C
  C103     1.0000 0.95720  0.95720  0.58940  Biso   1.000  C
  C104     1.0000 0.97970  0.97970  0.61470  Biso   1.000  C
  C105     1.0000 0.91650  0.53450  0.91650  Biso   1.000  C
  C106     1.0000 0.95720  0.49620  0.95720  Biso   1.000  C
  C107     1.0000 0.97970  0.42590  0.97970  Biso   1.000  C
  C108     1.0000 0.91650  0.63250  0.91650  Biso   1.000  C
  C109     1.0000 0.95720  0.58940  0.95720  Biso   1.000  C
  C110     1.0000 0.97970  0.61470  0.97970  Biso   1.000  C
  C111     1.0000 0.53450  0.91650  0.63250  Biso   1.000  C
  C112     1.0000 0.49620  0.95720  0.58940  Biso   1.000  C
  C113     1.0000 0.42590  0.97970  0.61470  Biso   1.000  C
  C114     1.0000 0.63250  0.91650  0.53450  Biso   1.000  C
  C115     1.0000 0.58940  0.95720  0.49620  Biso   1.000  C
  C116     1.0000 0.61470  0.97970  0.42590  Biso   1.000  C
  C117     1.0000 0.91650  0.53450  0.63250  Biso   1.000  C
  C118     1.0000 0.95720  0.49620  0.58940  Biso   1.000  C
  C119     1.0000 0.97970  0.42590  0.61470  Biso   1.000  C
  C120     1.0000 0.91650  0.63250  0.53450  Biso   1.000  C
  C121     1.0000 0.95720  0.58940  0.49620  Biso   1.000  C
  C122     1.0000 0.97970  0.61470  0.42590  Biso   1.000  C
  C123     1.0000 0.63250  0.91650  0.91650  Biso   1.000  C
  C124     1.0000 0.58940  0.95720  0.95720  Biso   1.000  C
  C125     1.0000 0.61470  0.97970  0.97970  Biso   1.000  C
  C126     1.0000 0.53450  0.91650  0.91650  Biso   1.000  C
  C127     1.0000 0.49620  0.95720  0.95720  Biso   1.000  C
  C128     1.0000 0.42590  0.97970  0.97970  Biso   1.000  C
  C129     1.0000 0.39520  0.39520  0.10480  Biso   1.000  C
  C130     1.0000 0.35630  0.35630  0.14370  Biso   1.000  C
  C131     1.0000 0.48080  0.48080  0.01920  Biso   1.000  C
  C132     1.0000 0.10480  0.10480  0.39520  Biso   1.000  C
  C133     1.0000 0.14370  0.14370  0.35630  Biso   1.000  C
  C134     1.0000 0.01920  0.01920  0.48080  Biso   1.000  C
  C135     1.0000 0.39520  0.10480  0.10480  Biso   1.000  C
  C136     1.0000 0.35630  0.14370  0.14370  Biso   1.000  C
  C137     1.0000 0.48080  0.01920  0.01920  Biso   1.000  C
  C138     1.0000 0.10480  0.39520  0.39520  Biso   1.000  C
  C139     1.0000 0.14370  0.35630  0.35630  Biso   1.000  C
  C140     1.0000 0.01920  0.48080  0.48080  Biso   1.000  C
  C141     1.0000 0.39520  0.10480  0.39520  Biso   1.000  C
  C142     1.0000 0.35630  0.14370  0.35630  Biso   1.000  C
  C143     1.0000 0.48080  0.01920  0.48080  Biso   1.000  C
  C144     1.0000 0.10480  0.39520  0.10480  Biso   1.000  C
  C145     1.0000 0.14370  0.35630  0.14370  Biso   1.000  C
  C146     1.0000 0.01920  0.48080  0.01920  Biso   1.000  C
  C147     1.0000 0.60480  0.60480  0.89520  Biso   1.000  C
  C148     1.0000 0.64370  0.64370  0.85630  Biso   1.000  C
  C149     1.0000 0.51920  0.51920  0.98080  Biso   1.000  C
  C150     1.0000 0.89520  0.89520  0.60480  Biso   1.000  C
  C151     1.0000 0.85630  0.85630  0.64370  Biso   1.000  C
  C152     1.0000 0.98080  0.98080  0.51920  Biso   1.000  C
  C153     1.0000 0.89520  0.60480  0.89520  Biso   1.000  C
  C154     1.0000 0.85630  0.64370  0.85630  Biso   1.000  C
  C155     1.0000 0.98080  0.51920  0.98080  Biso   1.000  C
  C156     1.0000 0.60480  0.89520  0.60480  Biso   1.000  C
  C157     1.0000 0.64370  0.85630  0.64370  Biso   1.000  C
  C158     1.0000 0.51920  0.98080  0.51920  Biso   1.000  C
  C159     1.0000 0.89520  0.60480  0.60480  Biso   1.000  C
  C160     1.0000 0.85630  0.64370  0.64370  Biso   1.000  C
  C161     1.0000 0.98080  0.51920  0.51920  Biso   1.000  C
  C162     1.0000 0.60480  0.89520  0.89520  Biso   1.000  C
  C163     1.0000 0.64370  0.85630  0.85630  Biso   1.000  C
  C164     1.0000 0.51920  0.98080  0.98080  Biso   1.000  C
  C165     1.0000 0.25000  0.25000  0.25000  Biso   1.000  C
  C166     1.0000 0.75000  0.75000  0.75000  Biso   1.000  C
  C167     1.0000 0.29370  0.38370  0.16130  Biso   1.000  C
  C168     1.0000 0.38370  0.29370  0.16130  Biso   1.000  C
  C169     1.0000 0.16130  0.16130  0.29370  Biso   1.000  C
  C170     1.0000 0.16130  0.16130  0.38370  Biso   1.000  C
  C171     1.0000 0.29370  0.16130  0.16130  Biso   1.000  C
  C172     1.0000 0.38370  0.16130  0.16130  Biso   1.000  C
  C173     1.0000 0.16130  0.29370  0.38370  Biso   1.000  C
  C174     1.0000 0.16130  0.38370  0.29370  Biso   1.000  C
  C175     1.0000 0.29370  0.16130  0.38370  Biso   1.000  C
  C176     1.0000 0.38370  0.16130  0.29370  Biso   1.000  C
  C177     1.0000 0.16130  0.38370  0.16130  Biso   1.000  C
  C178     1.0000 0.16130  0.29370  0.16130  Biso   1.000  C
  C179     1.0000 0.61630  0.70630  0.83870  Biso   1.000  C
  C180     1.0000 0.70630  0.61630  0.83870  Biso   1.000  C
  C181     1.0000 0.83870  0.83870  0.70630  Biso   1.000  C
  C182     1.0000 0.83870  0.83870  0.61630  Biso   1.000  C
  C183     1.0000 0.83870  0.70630  0.83870  Biso   1.000  C
  C184     1.0000 0.83870  0.61630  0.83870  Biso   1.000  C
  C185     1.0000 0.70630  0.83870  0.61630  Biso   1.000  C
  C186     1.0000 0.61630  0.83870  0.70630  Biso   1.000  C
  C187     1.0000 0.83870  0.70630  0.61630  Biso   1.000  C
  C188     1.0000 0.83870  0.61630  0.70630  Biso   1.000  C
  C189     1.0000 0.61630  0.83870  0.83870  Biso   1.000  C
  C190     1.0000 0.70630  0.83870  0.83870  Biso   1.000  C
  O1       1.0000 0.52749  0.12437  0.52269  Biso   1.000  O
  O2       1.0000 0.52749  0.25537  0.52269  Biso   1.000  O
  O3       1.0000 0.39649  0.25537  0.52269  Biso   1.000  O
  O4       1.0000 0.52749  0.25537  0.39169  Biso   1.000  O
  O5       1.0000 0.96199  0.68987  0.95719  Biso   1.000  O
  O6       1.0000 0.96199  0.82087  0.95719  Biso   1.000  O
  O7       1.0000 0.09299  0.68987  0.95719  Biso   1.000  O
  O8       1.0000 0.96199  0.68987  0.08819  Biso   1.000  O
  O9       1.0000 0.64854  0.15162  0.64374  Biso   1.000  O
  O10      1.0000 0.71164  0.13392  0.70684  Biso   1.000  O
  O11      1.0000 0.64854  0.98602  0.64374  Biso   1.000  O
  O12      1.0000 0.71164  0.87752  0.70684  Biso   1.000  O
  O13      1.0000 0.42374  0.37642  0.25334  Biso   1.000  O
  O14      1.0000 0.40604  0.43952  0.14484  Biso   1.000  O
  O15      1.0000 0.25814  0.37642  0.41894  Biso   1.000  O
  O16      1.0000 0.14964  0.43952  0.40124  Biso   1.000  O
  O17      1.0000 0.42374  0.37642  0.64374  Biso   1.000  O
  O18      1.0000 0.40604  0.43952  0.70684  Biso   1.000  O
  O19      1.0000 0.25814  0.37642  0.64374  Biso   1.000  O
  O20      1.0000 0.14964  0.43952  0.70684  Biso   1.000  O
  O21      1.0000 0.64854  0.98602  0.41894  Biso   1.000  O
  O22      1.0000 0.71164  0.87752  0.40124  Biso   1.000  O
  O23      1.0000 0.64854  0.15162  0.25334  Biso   1.000  O
  O24      1.0000 0.71164  0.13392  0.14484  Biso   1.000  O
  O25      1.0000 0.64854  0.37642  0.41894  Biso   1.000  O
  O26      1.0000 0.71164  0.43952  0.40124  Biso   1.000  O
  O27      1.0000 0.64854  0.37642  0.25334  Biso   1.000  O
  O28      1.0000 0.71164  0.43952  0.14484  Biso   1.000  O
  O29      1.0000 0.25814  0.15162  0.64374  Biso   1.000  O
  O30      1.0000 0.14964  0.13392  0.70684  Biso   1.000  O
  O31      1.0000 0.42374  0.98602  0.64374  Biso   1.000  O
  O32      1.0000 0.40604  0.87752  0.70684  Biso   1.000  O
  O33      1.0000 0.84094  0.95922  0.83614  Biso   1.000  O
  O34      1.0000 0.77784  0.06772  0.77304  Biso   1.000  O
  O35      1.0000 0.84094  0.79362  0.83614  Biso   1.000  O
  O36      1.0000 0.77784  0.81132  0.77304  Biso   1.000  O
  O37      1.0000 0.06574  0.56882  0.22654  Biso   1.000  O
  O38      1.0000 0.08344  0.50572  0.33504  Biso   1.000  O
  O39      1.0000 0.23134  0.56882  0.06094  Biso   1.000  O
  O40      1.0000 0.33984  0.50572  0.07864  Biso   1.000  O
  O41      1.0000 0.06574  0.95922  0.83614  Biso   1.000  O
  O42      1.0000 0.08344  0.06772  0.77304  Biso   1.000  O
  O43      1.0000 0.23134  0.79362  0.83614  Biso   1.000  O
  O44      1.0000 0.33984  0.81132  0.77304  Biso   1.000  O
  O45      1.0000 0.84094  0.56882  0.06094  Biso   1.000  O
  O46      1.0000 0.77784  0.50572  0.07864  Biso   1.000  O
  O47      1.0000 0.84094  0.56882  0.22654  Biso   1.000  O
  O48      1.0000 0.77784  0.50572  0.33504  Biso   1.000  O
  O49      1.0000 0.84094  0.95922  0.06094  Biso   1.000  O
  O50      1.0000 0.77784  0.06772  0.07864  Biso   1.000  O
  O51      1.0000 0.84094  0.79362  0.22654  Biso   1.000  O
  O52      1.0000 0.77784  0.81132  0.33504  Biso   1.000  O
  O53      1.0000 0.23134  0.56882  0.83614  Biso   1.000  O
  O54      1.0000 0.33984  0.50572  0.77304  Biso   1.000  O
  O55      1.0000 0.06574  0.56882  0.83614  Biso   1.000  O
  O56      1.0000 0.08344  0.50572  0.77304  Biso   1.000  O
  O57      1.0000 0.66124  0.10512  0.65644  Biso   1.000  O
  O58      1.0000 0.70194  0.06202  0.69714  Biso   1.000  O
  O59      1.0000 0.72444  0.08732  0.71964  Biso   1.000  O
  O60      1.0000 0.66124  0.00712  0.65644  Biso   1.000  O
  O61      1.0000 0.70194  0.96882  0.69714  Biso   1.000  O
  O62      1.0000 0.72444  0.89852  0.71964  Biso   1.000  O
  O63      1.0000 0.37724  0.38912  0.27444  Biso   1.000  O
  O64      1.0000 0.33414  0.42982  0.23614  Biso   1.000  O
  O65      1.0000 0.35944  0.45232  0.16584  Biso   1.000  O
  O66      1.0000 0.27924  0.38912  0.37244  Biso   1.000  O
  O67      1.0000 0.24094  0.42982  0.32934  Biso   1.000  O
  O68      1.0000 0.17064  0.45232  0.35464  Biso   1.000  O
  O69      1.0000 0.37724  0.38912  0.65644  Biso   1.000  O
  O70      1.0000 0.33414  0.42982  0.69714  Biso   1.000  O
  O71      1.0000 0.35944  0.45232  0.71964  Biso   1.000  O
  O72      1.0000 0.27924  0.38912  0.65644  Biso   1.000  O
  O73      1.0000 0.24094  0.42982  0.69714  Biso   1.000  O
  O74      1.0000 0.17064  0.45232  0.71964  Biso   1.000  O
  O75      1.0000 0.66124  0.00712  0.37244  Biso   1.000  O
  O76      1.0000 0.70194  0.96882  0.32934  Biso   1.000  O
  O77      1.0000 0.72444  0.89852  0.35464  Biso   1.000  O
  O78      1.0000 0.66124  0.10512  0.27444  Biso   1.000  O
  O79      1.0000 0.70194  0.06202  0.23614  Biso   1.000  O
  O80      1.0000 0.72444  0.08732  0.16584  Biso   1.000  O
  O81      1.0000 0.66124  0.38912  0.37244  Biso   1.000  O
  O82      1.0000 0.70194  0.42982  0.32934  Biso   1.000  O
  O83      1.0000 0.72444  0.45232  0.35464  Biso   1.000  O
  O84      1.0000 0.66124  0.38912  0.27444  Biso   1.000  O
  O85      1.0000 0.70194  0.42982  0.23614  Biso   1.000  O
  O86      1.0000 0.72444  0.45232  0.16584  Biso   1.000  O
  O87      1.0000 0.27924  0.10512  0.65644  Biso   1.000  O
  O88      1.0000 0.24094  0.06202  0.69714  Biso   1.000  O
  O89      1.0000 0.17064  0.08732  0.71964  Biso   1.000  O
  O90      1.0000 0.37724  0.00712  0.65644  Biso   1.000  O
  O91      1.0000 0.33414  0.96882  0.69714  Biso   1.000  O
  O92      1.0000 0.35944  0.89852  0.71964  Biso   1.000  O
  O93      1.0000 0.82824  0.93812  0.82344  Biso   1.000  O
  O94      1.0000 0.78754  0.97642  0.78274  Biso   1.000  O
  O95      1.0000 0.76504  0.04672  0.76024  Biso   1.000  O
  O96      1.0000 0.82824  0.84012  0.82344  Biso   1.000  O
  O97      1.0000 0.78754  0.88322  0.78274  Biso   1.000  O
  O98      1.0000 0.76504  0.85792  0.76024  Biso   1.000  O
  O99      1.0000 0.11224  0.55612  0.20544  Biso   1.000  O
  O100     1.0000 0.15534  0.51542  0.24374  Biso   1.000  O
  O101     1.0000 0.13004  0.49292  0.31404  Biso   1.000  O
  O102     1.0000 0.21024  0.55612  0.10744  Biso   1.000  O
  O103     1.0000 0.24854  0.51542  0.15054  Biso   1.000  O
  O104     1.0000 0.31884  0.49292  0.12524  Biso   1.000  O
  O105     1.0000 0.11224  0.93812  0.82344  Biso   1.000  O
  O106     1.0000 0.15534  0.97642  0.78274  Biso   1.000  O
  O107     1.0000 0.13004  0.04672  0.76024  Biso   1.000  O
  O108     1.0000 0.21024  0.84012  0.82344  Biso   1.000  O
  O109     1.0000 0.24854  0.88322  0.78274  Biso   1.000  O
  O110     1.0000 0.31884  0.85792  0.76024  Biso   1.000  O
  O111     1.0000 0.82824  0.55612  0.10744  Biso   1.000  O
  O112     1.0000 0.78754  0.51542  0.15054  Biso   1.000  O
  O113     1.0000 0.76504  0.49292  0.12524  Biso   1.000  O
  O114     1.0000 0.82824  0.55612  0.20544  Biso   1.000  O
  O115     1.0000 0.78754  0.51542  0.24374  Biso   1.000  O
  O116     1.0000 0.76504  0.49292  0.31404  Biso   1.000  O
  O117     1.0000 0.82824  0.93812  0.10744  Biso   1.000  O
  O118     1.0000 0.78754  0.97642  0.15054  Biso   1.000  O
  O119     1.0000 0.76504  0.04672  0.12524  Biso   1.000  O
  O120     1.0000 0.82824  0.84012  0.20544  Biso   1.000  O
  O121     1.0000 0.78754  0.88322  0.24374  Biso   1.000  O
  O122     1.0000 0.76504  0.85792  0.31404  Biso   1.000  O
  O123     1.0000 0.21024  0.55612  0.82344  Biso   1.000  O
  O124     1.0000 0.24854  0.51542  0.78274  Biso   1.000  O
  O125     1.0000 0.31884  0.49292  0.76024  Biso   1.000  O
  O126     1.0000 0.11224  0.55612  0.82344  Biso   1.000  O
  O127     1.0000 0.15534  0.51542  0.78274  Biso   1.000  O
  O128     1.0000 0.13004  0.49292  0.76024  Biso   1.000  O
  O129     1.0000 0.63994  0.07742  0.63514  Biso   1.000  O
  O130     1.0000 0.60104  0.11632  0.59624  Biso   1.000  O
  O131     1.0000 0.72554  0.99182  0.72074  Biso   1.000  O
  O132     1.0000 0.34954  0.36782  0.34474  Biso   1.000  O
  O133     1.0000 0.38844  0.32892  0.38364  Biso   1.000  O
  O134     1.0000 0.26394  0.45342  0.25914  Biso   1.000  O
  O135     1.0000 0.34954  0.36782  0.63514  Biso   1.000  O
  O136     1.0000 0.38844  0.32892  0.59624  Biso   1.000  O
  O137     1.0000 0.26394  0.45342  0.72074  Biso   1.000  O
  O138     1.0000 0.63994  0.07742  0.34474  Biso   1.000  O
  O139     1.0000 0.60104  0.11632  0.38364  Biso   1.000  O
  O140     1.0000 0.72554  0.99182  0.25914  Biso   1.000  O
  O141     1.0000 0.63994  0.36782  0.34474  Biso   1.000  O
  O142     1.0000 0.60104  0.32892  0.38364  Biso   1.000  O
  O143     1.0000 0.72554  0.45342  0.25914  Biso   1.000  O
  O144     1.0000 0.34954  0.07742  0.63514  Biso   1.000  O
  O145     1.0000 0.38844  0.11632  0.59624  Biso   1.000  O
  O146     1.0000 0.26394  0.99182  0.72074  Biso   1.000  O
  O147     1.0000 0.84954  0.86782  0.84474  Biso   1.000  O
  O148     1.0000 0.88844  0.82892  0.88364  Biso   1.000  O
  O149     1.0000 0.76394  0.95342  0.75914  Biso   1.000  O
  O150     1.0000 0.13994  0.57742  0.13514  Biso   1.000  O
  O151     1.0000 0.10104  0.61632  0.09624  Biso   1.000  O
  O152     1.0000 0.22554  0.49182  0.22074  Biso   1.000  O
  O153     1.0000 0.13994  0.86782  0.84474  Biso   1.000  O
  O154     1.0000 0.10104  0.82892  0.88364  Biso   1.000  O
  O155     1.0000 0.22554  0.95342  0.75914  Biso   1.000  O
  O156     1.0000 0.84954  0.57742  0.13514  Biso   1.000  O
  O157     1.0000 0.88844  0.61632  0.09624  Biso   1.000  O
  O158     1.0000 0.76394  0.49182  0.22074  Biso   1.000  O
  O159     1.0000 0.84954  0.86782  0.13514  Biso   1.000  O
  O160     1.0000 0.88844  0.82892  0.09624  Biso   1.000  O
  O161     1.0000 0.76394  0.95342  0.22074  Biso   1.000  O
  O162     1.0000 0.13994  0.57742  0.84474  Biso   1.000  O
  O163     1.0000 0.10104  0.61632  0.88364  Biso   1.000  O
  O164     1.0000 0.22554  0.49182  0.75914  Biso   1.000  O
  O165     1.0000 0.49474  0.22262  0.48994  Biso   1.000  O
  O166     1.0000 0.99474  0.72262  0.98994  Biso   1.000  O
  O167     1.0000 0.58344  0.08892  0.57864  Biso   1.000  O
  O168     1.0000 0.58344  0.17892  0.57864  Biso   1.000  O
  O169     1.0000 0.36104  0.31132  0.44624  Biso   1.000  O
  O170     1.0000 0.45104  0.31132  0.35624  Biso   1.000  O
  O171     1.0000 0.36104  0.31132  0.57864  Biso   1.000  O
  O172     1.0000 0.45104  0.31132  0.57864  Biso   1.000  O
  O173     1.0000 0.58344  0.17892  0.35624  Biso   1.000  O
  O174     1.0000 0.58344  0.08892  0.44624  Biso   1.000  O
  O175     1.0000 0.58344  0.31132  0.35624  Biso   1.000  O
  O176     1.0000 0.58344  0.31132  0.44624  Biso   1.000  O
  O177     1.0000 0.45104  0.08892  0.57864  Biso   1.000  O
  O178     1.0000 0.36104  0.17892  0.57864  Biso   1.000  O
  O179     1.0000 0.90604  0.76632  0.90124  Biso   1.000  O
  O180     1.0000 0.90604  0.85632  0.90124  Biso   1.000  O
  O181     1.0000 0.12844  0.63392  0.03364  Biso   1.000  O
  O182     1.0000 0.03844  0.63392  0.12364  Biso   1.000  O
  O183     1.0000 0.12844  0.76632  0.90124  Biso   1.000  O
  O184     1.0000 0.03844  0.85632  0.90124  Biso   1.000  O
  O185     1.0000 0.90604  0.63392  0.12364  Biso   1.000  O
  O186     1.0000 0.90604  0.63392  0.03364  Biso   1.000  O
  O187     1.0000 0.90604  0.76632  0.12364  Biso   1.000  O
  O188     1.0000 0.90604  0.85632  0.03364  Biso   1.000  O
  O189     1.0000 0.03844  0.63392  0.90124  Biso   1.000  O
  O190     1.0000 0.12844  0.63392  0.90124  Biso   1.000  O
