data_image0
_cell_length_a       18.3149
_cell_length_b       18.3149
_cell_length_c       18.3149
_cell_angle_alpha    60.3295
_cell_angle_beta     60.3295
_cell_angle_gamma    60.3295

_symmetry_space_group_name_H-M    "P 1"
_symmetry_int_tables_number       1

loop_
  _symmetry_equiv_pos_as_xyz
  'x, y, z'

loop_
  _atom_site_label
  _atom_site_occupancy
  _atom_site_fract_x
  _atom_site_fract_y
  _atom_site_fract_z
  _atom_site_thermal_displace_type
  _atom_site_B_iso_or_equiv
  _atom_site_type_symbol
  C1       1.0000 0.20609  0.20609  0.20609  Biso   1.000  C
  C2       1.0000 0.79391  0.79391  0.79391  Biso   1.000  C
  C3       1.0000 0.20677  0.37952  0.20677  Biso   1.000  C
  C4       1.0000 0.20677  0.20677  0.37952  Biso   1.000  C
  C5       1.0000 0.37952  0.20677  0.20677  Biso   1.000  C
  C6       1.0000 0.62048  0.79323  0.79323  Biso   1.000  C
  C7       1.0000 0.79323  0.79323  0.62048  Biso   1.000  C
  C8       1.0000 0.79323  0.62048  0.79323  Biso   1.000  C
  C9       1.0000 0.04260  0.34350  0.56530  Biso   1.000  C
  C10      1.0000 0.56530  0.04260  0.34350  Biso   1.000  C
  C11      1.0000 0.34350  0.56530  0.04260  Biso   1.000  C
  C12      1.0000 0.65650  0.95740  0.43470  Biso   1.000  C
  C13      1.0000 0.95740  0.43470  0.65650  Biso   1.000  C
  C14      1.0000 0.43470  0.65650  0.95740  Biso   1.000  C
  C15      1.0000 0.95740  0.65650  0.43470  Biso   1.000  C
  C16      1.0000 0.43470  0.95740  0.65650  Biso   1.000  C
  C17      1.0000 0.65650  0.43470  0.95740  Biso   1.000  C
  C18      1.0000 0.34350  0.04260  0.56530  Biso   1.000  C
  C19      1.0000 0.04260  0.56530  0.34350  Biso   1.000  C
  C20      1.0000 0.56530  0.34350  0.04260  Biso   1.000  C
  C21      1.0000 0.04880  0.55860  0.04880  Biso   1.000  C
  C22      1.0000 0.04170  0.34450  0.04170  Biso   1.000  C
  C23      1.0000 0.04880  0.04880  0.55860  Biso   1.000  C
  C24      1.0000 0.04170  0.04170  0.34450  Biso   1.000  C
  C25      1.0000 0.55860  0.04880  0.04880  Biso   1.000  C
  C26      1.0000 0.34450  0.04170  0.04170  Biso   1.000  C
  C27      1.0000 0.44140  0.95120  0.95120  Biso   1.000  C
  C28      1.0000 0.65550  0.95830  0.95830  Biso   1.000  C
  C29      1.0000 0.95120  0.95120  0.44140  Biso   1.000  C
  C30      1.0000 0.95830  0.95830  0.65550  Biso   1.000  C
  C31      1.0000 0.95120  0.44140  0.95120  Biso   1.000  C
  C32      1.0000 0.95830  0.65550  0.95830  Biso   1.000  C
  C33      1.0000 0.02770  0.40510  0.53870  Biso   1.000  C
  C34      1.0000 0.53870  0.02770  0.40510  Biso   1.000  C
  C35      1.0000 0.40510  0.53870  0.02770  Biso   1.000  C
  C36      1.0000 0.59490  0.97230  0.46130  Biso   1.000  C
  C37      1.0000 0.97230  0.46130  0.59490  Biso   1.000  C
  C38      1.0000 0.46130  0.59490  0.97230  Biso   1.000  C
  C39      1.0000 0.97230  0.59490  0.46130  Biso   1.000  C
  C40      1.0000 0.46130  0.97230  0.59490  Biso   1.000  C
  C41      1.0000 0.59490  0.46130  0.97230  Biso   1.000  C
  C42      1.0000 0.40510  0.02770  0.53870  Biso   1.000  C
  C43      1.0000 0.02770  0.53870  0.40510  Biso   1.000  C
  C44      1.0000 0.53870  0.40510  0.02770  Biso   1.000  C
  C45      1.0000 0.11130  0.39010  0.11130  Biso   1.000  C
  C46      1.0000 0.05390  0.44400  0.05390  Biso   1.000  C
  C47      1.0000 0.02940  0.53530  0.02940  Biso   1.000  C
  C48      1.0000 0.02520  0.40600  0.02520  Biso   1.000  C
  C49      1.0000 0.11130  0.11130  0.39010  Biso   1.000  C
  C50      1.0000 0.05390  0.05390  0.44400  Biso   1.000  C
  C51      1.0000 0.02940  0.02940  0.53530  Biso   1.000  C
  C52      1.0000 0.02520  0.02520  0.40600  Biso   1.000  C
  C53      1.0000 0.39010  0.11130  0.11130  Biso   1.000  C
  C54      1.0000 0.44400  0.05390  0.05390  Biso   1.000  C
  C55      1.0000 0.53530  0.02940  0.02940  Biso   1.000  C
  C56      1.0000 0.40600  0.02520  0.02520  Biso   1.000  C
  C57      1.0000 0.60990  0.88870  0.88870  Biso   1.000  C
  C58      1.0000 0.55600  0.94610  0.94610  Biso   1.000  C
  C59      1.0000 0.46470  0.97060  0.97060  Biso   1.000  C
  C60      1.0000 0.59400  0.97480  0.97480  Biso   1.000  C
  C61      1.0000 0.88870  0.88870  0.60990  Biso   1.000  C
  C62      1.0000 0.94610  0.94610  0.55600  Biso   1.000  C
  C63      1.0000 0.97060  0.97060  0.46470  Biso   1.000  C
  C64      1.0000 0.97480  0.97480  0.59400  Biso   1.000  C
  C65      1.0000 0.88870  0.60990  0.88870  Biso   1.000  C
  C66      1.0000 0.94610  0.55600  0.94610  Biso   1.000  C
  C67      1.0000 0.97060  0.46470  0.97060  Biso   1.000  C
  C68      1.0000 0.97480  0.59400  0.97480  Biso   1.000  C
  C69      1.0000 0.11170  0.38940  0.38940  Biso   1.000  C
  C70      1.0000 0.05990  0.44245  0.44245  Biso   1.000  C
  C71      1.0000 0.38940  0.11170  0.38940  Biso   1.000  C
  C72      1.0000 0.44245  0.05990  0.44245  Biso   1.000  C
  C73      1.0000 0.38940  0.38940  0.11170  Biso   1.000  C
  C74      1.0000 0.44245  0.44245  0.05990  Biso   1.000  C
  C75      1.0000 0.61060  0.88830  0.61060  Biso   1.000  C
  C76      1.0000 0.55755  0.94010  0.55755  Biso   1.000  C
  C77      1.0000 0.88830  0.61060  0.61060  Biso   1.000  C
  C78      1.0000 0.94010  0.55755  0.55755  Biso   1.000  C
  C79      1.0000 0.61060  0.61060  0.88830  Biso   1.000  C
  C80      1.0000 0.55755  0.55755  0.94010  Biso   1.000  C
  C81      1.0000 0.13529  0.42759  0.30119  Biso   1.000  C
  C82      1.0000 0.30119  0.13529  0.42759  Biso   1.000  C
  C83      1.0000 0.42759  0.30119  0.13529  Biso   1.000  C
  C84      1.0000 0.57241  0.86471  0.69881  Biso   1.000  C
  C85      1.0000 0.86471  0.69881  0.57241  Biso   1.000  C
  C86      1.0000 0.69881  0.57241  0.86471  Biso   1.000  C
  C87      1.0000 0.86471  0.57241  0.69881  Biso   1.000  C
  C88      1.0000 0.69881  0.86471  0.57241  Biso   1.000  C
  C89      1.0000 0.57241  0.69881  0.86471  Biso   1.000  C
  C90      1.0000 0.42759  0.13529  0.30119  Biso   1.000  C
  C91      1.0000 0.13529  0.30119  0.42759  Biso   1.000  C
  C92      1.0000 0.30119  0.42759  0.13529  Biso   1.000  C
  C93      1.0000 0.25153  0.25153  0.25153  Biso   1.000  C
  C94      1.0000 0.74847  0.74847  0.74847  Biso   1.000  C
  C95      1.0000 0.13410  0.30220  0.13410  Biso   1.000  C
  C96      1.0000 0.13380  0.42820  0.13380  Biso   1.000  C
  C97      1.0000 0.13410  0.13410  0.30220  Biso   1.000  C
  C98      1.0000 0.13380  0.13380  0.42820  Biso   1.000  C
  C99      1.0000 0.30220  0.13410  0.13410  Biso   1.000  C
  C100     1.0000 0.42820  0.13380  0.13380  Biso   1.000  C
  C101     1.0000 0.69780  0.86590  0.86590  Biso   1.000  C
  C102     1.0000 0.57180  0.86620  0.86620  Biso   1.000  C
  C103     1.0000 0.86590  0.86590  0.69780  Biso   1.000  C
  C104     1.0000 0.86620  0.86620  0.57180  Biso   1.000  C
  C105     1.0000 0.86590  0.69780  0.86590  Biso   1.000  C
  C106     1.0000 0.86620  0.57180  0.86620  Biso   1.000  C
  O1       1.0000 1.00000  1.00000  0.00000  Biso   1.000  O
  O2       1.0000 0.00102  0.00043  0.17174  Biso   1.000  O
  O3       1.0000 0.82570  0.00043  0.17174  Biso   1.000  O
  O4       1.0000 0.99986  0.82797  0.17174  Biso   1.000  O
  O5       1.0000 0.42304  0.41097  0.75087  Biso   1.000  O
  O6       1.0000 0.42202  0.41054  0.57913  Biso   1.000  O
  O7       1.0000 0.42318  0.58300  0.57913  Biso   1.000  O
  O8       1.0000 0.59734  0.41054  0.57913  Biso   1.000  O
  O9       1.0000 0.16916  0.16268  0.80545  Biso   1.000  O
  O10      1.0000 0.16459  0.16074  0.03282  Biso   1.000  O
  O11      1.0000 0.64791  0.86133  0.33173  Biso   1.000  O
  O12      1.0000 0.86442  0.63719  0.33173  Biso   1.000  O
  O13      1.0000 0.16779  0.63644  0.03282  Biso   1.000  O
  O14      1.0000 0.16714  0.86252  0.80545  Biso   1.000  O
  O15      1.0000 0.64993  0.16149  0.33173  Biso   1.000  O
  O16      1.0000 0.86122  0.16149  0.33173  Biso   1.000  O
  O17      1.0000 0.16434  0.86133  0.33173  Biso   1.000  O
  O18      1.0000 0.16956  0.63719  0.33173  Biso   1.000  O
  O19      1.0000 0.64817  0.16074  0.03282  Biso   1.000  O
  O20      1.0000 0.86402  0.16268  0.80545  Biso   1.000  O
  O21      1.0000 0.25388  0.24829  0.94542  Biso   1.000  O
  O22      1.0000 0.25845  0.25023  0.71805  Biso   1.000  O
  O23      1.0000 0.55862  0.77378  0.41914  Biso   1.000  O
  O24      1.0000 0.77513  0.54964  0.41914  Biso   1.000  O
  O25      1.0000 0.77487  0.25023  0.71805  Biso   1.000  O
  O26      1.0000 0.55902  0.24829  0.94542  Biso   1.000  O
  O27      1.0000 0.25348  0.77378  0.41914  Biso   1.000  O
  O28      1.0000 0.25871  0.54964  0.41914  Biso   1.000  O
  O29      1.0000 0.56182  0.24948  0.41914  Biso   1.000  O
  O30      1.0000 0.77311  0.24948  0.41914  Biso   1.000  O
  O31      1.0000 0.25525  0.77453  0.71805  Biso   1.000  O
  O32      1.0000 0.25590  0.54845  0.94542  Biso   1.000  O
  O33      1.0000 0.18727  0.18030  0.83166  Biso   1.000  O
  O34      1.0000 0.18219  0.17814  0.97166  Biso   1.000  O
  O35      1.0000 0.67435  0.79996  0.34921  Biso   1.000  O
  O36      1.0000 0.80227  0.66354  0.34921  Biso   1.000  O
  O37      1.0000 0.18545  0.66259  0.97166  Biso   1.000  O
  O38      1.0000 0.18472  0.80117  0.83166  Biso   1.000  O
  O39      1.0000 0.67690  0.17909  0.34921  Biso   1.000  O
  O40      1.0000 0.79901  0.17909  0.34921  Biso   1.000  O
  O41      1.0000 0.18187  0.79996  0.34921  Biso   1.000  O
  O42      1.0000 0.18768  0.66354  0.34921  Biso   1.000  O
  O43      1.0000 0.67467  0.17814  0.97166  Biso   1.000  O
  O44      1.0000 0.80186  0.18030  0.83166  Biso   1.000  O
  O45      1.0000 0.23577  0.23067  0.91921  Biso   1.000  O
  O46      1.0000 0.24085  0.23283  0.77921  Biso   1.000  O
  O47      1.0000 0.62077  0.74743  0.40166  Biso   1.000  O
  O48      1.0000 0.74869  0.61101  0.40166  Biso   1.000  O
  O49      1.0000 0.74837  0.23283  0.77921  Biso   1.000  O
  O50      1.0000 0.62118  0.23067  0.91921  Biso   1.000  O
  O51      1.0000 0.23536  0.74743  0.40166  Biso   1.000  O
  O52      1.0000 0.24117  0.61101  0.40166  Biso   1.000  O
  O53      1.0000 0.62403  0.23188  0.40166  Biso   1.000  O
  O54      1.0000 0.74614  0.23188  0.40166  Biso   1.000  O
  O55      1.0000 0.23759  0.74838  0.77921  Biso   1.000  O
  O56      1.0000 0.23832  0.60980  0.91921  Biso   1.000  O
  O57      1.0000 0.09631  0.09415  0.99210  Biso   1.000  O
  O58      1.0000 0.15443  0.15113  0.93521  Biso   1.000  O
  O59      1.0000 0.81697  0.82027  0.26552  Biso   1.000  O
  O60      1.0000 0.75884  0.76329  0.32241  Biso   1.000  O
  O61      1.0000 0.09446  0.81959  0.99210  Biso   1.000  O
  O62      1.0000 0.15181  0.76232  0.93521  Biso   1.000  O
  O63      1.0000 0.81881  0.09483  0.26552  Biso   1.000  O
  O64      1.0000 0.76146  0.15211  0.32241  Biso   1.000  O
  O65      1.0000 0.09608  0.82027  0.26552  Biso   1.000  O
  O66      1.0000 0.15410  0.76329  0.32241  Biso   1.000  O
  O67      1.0000 0.81720  0.09415  0.99210  Biso   1.000  O
  O68      1.0000 0.75917  0.15113  0.93521  Biso   1.000  O
  O69      1.0000 0.32673  0.31682  0.75877  Biso   1.000  O
  O70      1.0000 0.26861  0.25984  0.81567  Biso   1.000  O
  O71      1.0000 0.60607  0.59070  0.48535  Biso   1.000  O
  O72      1.0000 0.66420  0.64768  0.42846  Biso   1.000  O
  O73      1.0000 0.60584  0.31682  0.75877  Biso   1.000  O
  O74      1.0000 0.66387  0.25984  0.81567  Biso   1.000  O
  O75      1.0000 0.32696  0.59070  0.48535  Biso   1.000  O
  O76      1.0000 0.26894  0.64768  0.42846  Biso   1.000  O
  O77      1.0000 0.60423  0.31614  0.48535  Biso   1.000  O
  O78      1.0000 0.66158  0.25886  0.42846  Biso   1.000  O
  O79      1.0000 0.32858  0.59138  0.75877  Biso   1.000  O
  O80      1.0000 0.27123  0.64865  0.81567  Biso   1.000  O
  O81      1.0000 0.95664  0.95721  0.12881  Biso   1.000  O
  O82      1.0000 0.46640  0.45376  0.62206  Biso   1.000  O
  O83      1.0000 0.07336  0.07185  0.95407  Biso   1.000  O
  O84      1.0000 0.07408  0.07216  0.07434  Biso   1.000  O
  O85      1.0000 0.77857  0.90281  0.24341  Biso   1.000  O
  O86      1.0000 0.90053  0.78203  0.24341  Biso   1.000  O
  O87      1.0000 0.07212  0.78161  0.07434  Biso   1.000  O
  O88      1.0000 0.07222  0.90208  0.95407  Biso   1.000  O
  O89      1.0000 0.77971  0.07258  0.24341  Biso   1.000  O
  O90      1.0000 0.90249  0.07258  0.24341  Biso   1.000  O
  O91      1.0000 0.07393  0.90281  0.24341  Biso   1.000  O
  O92      1.0000 0.07312  0.78203  0.24341  Biso   1.000  O
  O93      1.0000 0.77871  0.07216  0.07434  Biso   1.000  O
  O94      1.0000 0.90078  0.07185  0.95407  Biso   1.000  O
  O95      1.0000 0.34968  0.33912  0.79680  Biso   1.000  O
  O96      1.0000 0.34897  0.33882  0.67653  Biso   1.000  O
  O97      1.0000 0.52251  0.62894  0.50746  Biso   1.000  O
  O98      1.0000 0.64447  0.50816  0.50746  Biso   1.000  O
  O99      1.0000 0.64433  0.33882  0.67653  Biso   1.000  O
  O100     1.0000 0.52226  0.33912  0.79680  Biso   1.000  O
  O101     1.0000 0.34992  0.62894  0.50746  Biso   1.000  O
  O102     1.0000 0.34911  0.50816  0.50746  Biso   1.000  O
  O103     1.0000 0.52055  0.33839  0.50746  Biso   1.000  O
  O104     1.0000 0.64333  0.33839  0.50746  Biso   1.000  O
  O105     1.0000 0.35092  0.62936  0.67653  Biso   1.000  O
  O106     1.0000 0.35082  0.50889  0.79680  Biso   1.000  O
