data_image0
_cell_length_a       18.3149
_cell_length_b       18.3149
_cell_length_c       18.3149
_cell_angle_alpha    60.3295
_cell_angle_beta     60.3295
_cell_angle_gamma    60.3295

_symmetry_space_group_name_H-M    "P 1"
_symmetry_int_tables_number       1

loop_
  _symmetry_equiv_pos_as_xyz
  'x, y, z'

loop_
  _atom_site_label
  _atom_site_occupancy
  _atom_site_fract_x
  _atom_site_fract_y
  _atom_site_fract_z
  _atom_site_thermal_displace_type
  _atom_site_B_iso_or_equiv
  _atom_site_type_symbol
  C1       1.0000 0.20609  0.20609  0.20609  Biso   1.000  C
  C2       1.0000 0.79391  0.79391  0.79391  Biso   1.000  C
  C3       1.0000 0.20677  0.37952  0.20677  Biso   1.000  C
  C4       1.0000 0.20677  0.20677  0.37952  Biso   1.000  C
  C5       1.0000 0.37952  0.20677  0.20677  Biso   1.000  C
  C6       1.0000 0.62048  0.79323  0.79323  Biso   1.000  C
  C7       1.0000 0.79323  0.79323  0.62048  Biso   1.000  C
  C8       1.0000 0.79323  0.62048  0.79323  Biso   1.000  C
  C9       1.0000 0.04260  0.34350  0.56530  Biso   1.000  C
  C10      1.0000 0.56530  0.04260  0.34350  Biso   1.000  C
  C11      1.0000 0.34350  0.56530  0.04260  Biso   1.000  C
  C12      1.0000 0.65650  0.95740  0.43470  Biso   1.000  C
  C13      1.0000 0.95740  0.43470  0.65650  Biso   1.000  C
  C14      1.0000 0.43470  0.65650  0.95740  Biso   1.000  C
  C15      1.0000 0.95740  0.65650  0.43470  Biso   1.000  C
  C16      1.0000 0.43470  0.95740  0.65650  Biso   1.000  C
  C17      1.0000 0.65650  0.43470  0.95740  Biso   1.000  C
  C18      1.0000 0.34350  0.04260  0.56530  Biso   1.000  C
  C19      1.0000 0.04260  0.56530  0.34350  Biso   1.000  C
  C20      1.0000 0.56530  0.34350  0.04260  Biso   1.000  C
  C21      1.0000 0.04880  0.55860  0.04880  Biso   1.000  C
  C22      1.0000 0.04170  0.34450  0.04170  Biso   1.000  C
  C23      1.0000 0.04880  0.04880  0.55860  Biso   1.000  C
  C24      1.0000 0.04170  0.04170  0.34450  Biso   1.000  C
  C25      1.0000 0.55860  0.04880  0.04880  Biso   1.000  C
  C26      1.0000 0.34450  0.04170  0.04170  Biso   1.000  C
  C27      1.0000 0.44140  0.95120  0.95120  Biso   1.000  C
  C28      1.0000 0.65550  0.95830  0.95830  Biso   1.000  C
  C29      1.0000 0.95120  0.95120  0.44140  Biso   1.000  C
  C30      1.0000 0.95830  0.95830  0.65550  Biso   1.000  C
  C31      1.0000 0.95120  0.44140  0.95120  Biso   1.000  C
  C32      1.0000 0.95830  0.65550  0.95830  Biso   1.000  C
  C33      1.0000 0.02770  0.40510  0.53870  Biso   1.000  C
  C34      1.0000 0.53870  0.02770  0.40510  Biso   1.000  C
  C35      1.0000 0.40510  0.53870  0.02770  Biso   1.000  C
  C36      1.0000 0.59490  0.97230  0.46130  Biso   1.000  C
  C37      1.0000 0.97230  0.46130  0.59490  Biso   1.000  C
  C38      1.0000 0.46130  0.59490  0.97230  Biso   1.000  C
  C39      1.0000 0.97230  0.59490  0.46130  Biso   1.000  C
  C40      1.0000 0.46130  0.97230  0.59490  Biso   1.000  C
  C41      1.0000 0.59490  0.46130  0.97230  Biso   1.000  C
  C42      1.0000 0.40510  0.02770  0.53870  Biso   1.000  C
  C43      1.0000 0.02770  0.53870  0.40510  Biso   1.000  C
  C44      1.0000 0.53870  0.40510  0.02770  Biso   1.000  C
  C45      1.0000 0.11130  0.39010  0.11130  Biso   1.000  C
  C46      1.0000 0.05390  0.44400  0.05390  Biso   1.000  C
  C47      1.0000 0.02940  0.53530  0.02940  Biso   1.000  C
  C48      1.0000 0.02520  0.40600  0.02520  Biso   1.000  C
  C49      1.0000 0.11130  0.11130  0.39010  Biso   1.000  C
  C50      1.0000 0.05390  0.05390  0.44400  Biso   1.000  C
  C51      1.0000 0.02940  0.02940  0.53530  Biso   1.000  C
  C52      1.0000 0.02520  0.02520  0.40600  Biso   1.000  C
  C53      1.0000 0.39010  0.11130  0.11130  Biso   1.000  C
  C54      1.0000 0.44400  0.05390  0.05390  Biso   1.000  C
  C55      1.0000 0.53530  0.02940  0.02940  Biso   1.000  C
  C56      1.0000 0.40600  0.02520  0.02520  Biso   1.000  C
  C57      1.0000 0.60990  0.88870  0.88870  Biso   1.000  C
  C58      1.0000 0.55600  0.94610  0.94610  Biso   1.000  C
  C59      1.0000 0.46470  0.97060  0.97060  Biso   1.000  C
  C60      1.0000 0.59400  0.97480  0.97480  Biso   1.000  C
  C61      1.0000 0.88870  0.88870  0.60990  Biso   1.000  C
  C62      1.0000 0.94610  0.94610  0.55600  Biso   1.000  C
  C63      1.0000 0.97060  0.97060  0.46470  Biso   1.000  C
  C64      1.0000 0.97480  0.97480  0.59400  Biso   1.000  C
  C65      1.0000 0.88870  0.60990  0.88870  Biso   1.000  C
  C66      1.0000 0.94610  0.55600  0.94610  Biso   1.000  C
  C67      1.0000 0.97060  0.46470  0.97060  Biso   1.000  C
  C68      1.0000 0.97480  0.59400  0.97480  Biso   1.000  C
  C69      1.0000 0.11170  0.38940  0.38940  Biso   1.000  C
  C70      1.0000 0.05990  0.44245  0.44245  Biso   1.000  C
  C71      1.0000 0.38940  0.11170  0.38940  Biso   1.000  C
  C72      1.0000 0.44245  0.05990  0.44245  Biso   1.000  C
  C73      1.0000 0.38940  0.38940  0.11170  Biso   1.000  C
  C74      1.0000 0.44245  0.44245  0.05990  Biso   1.000  C
  C75      1.0000 0.61060  0.88830  0.61060  Biso   1.000  C
  C76      1.0000 0.55755  0.94010  0.55755  Biso   1.000  C
  C77      1.0000 0.88830  0.61060  0.61060  Biso   1.000  C
  C78      1.0000 0.94010  0.55755  0.55755  Biso   1.000  C
  C79      1.0000 0.61060  0.61060  0.88830  Biso   1.000  C
  C80      1.0000 0.55755  0.55755  0.94010  Biso   1.000  C
  C81      1.0000 0.13529  0.42759  0.30119  Biso   1.000  C
  C82      1.0000 0.30119  0.13529  0.42759  Biso   1.000  C
  C83      1.0000 0.42759  0.30119  0.13529  Biso   1.000  C
  C84      1.0000 0.57241  0.86471  0.69881  Biso   1.000  C
  C85      1.0000 0.86471  0.69881  0.57241  Biso   1.000  C
  C86      1.0000 0.69881  0.57241  0.86471  Biso   1.000  C
  C87      1.0000 0.86471  0.57241  0.69881  Biso   1.000  C
  C88      1.0000 0.69881  0.86471  0.57241  Biso   1.000  C
  C89      1.0000 0.57241  0.69881  0.86471  Biso   1.000  C
  C90      1.0000 0.42759  0.13529  0.30119  Biso   1.000  C
  C91      1.0000 0.13529  0.30119  0.42759  Biso   1.000  C
  C92      1.0000 0.30119  0.42759  0.13529  Biso   1.000  C
  C93      1.0000 0.25153  0.25153  0.25153  Biso   1.000  C
  C94      1.0000 0.74847  0.74847  0.74847  Biso   1.000  C
  C95      1.0000 0.13410  0.30220  0.13410  Biso   1.000  C
  C96      1.0000 0.13380  0.42820  0.13380  Biso   1.000  C
  C97      1.0000 0.13410  0.13410  0.30220  Biso   1.000  C
  C98      1.0000 0.13380  0.13380  0.42820  Biso   1.000  C
  C99      1.0000 0.30220  0.13410  0.13410  Biso   1.000  C
  C100     1.0000 0.42820  0.13380  0.13380  Biso   1.000  C
  C101     1.0000 0.69780  0.86590  0.86590  Biso   1.000  C
  C102     1.0000 0.57180  0.86620  0.86620  Biso   1.000  C
  C103     1.0000 0.86590  0.86590  0.69780  Biso   1.000  C
  C104     1.0000 0.86620  0.86620  0.57180  Biso   1.000  C
  C105     1.0000 0.86590  0.69780  0.86590  Biso   1.000  C
  C106     1.0000 0.86620  0.57180  0.86620  Biso   1.000  C
  O1       1.0000 0.00000  0.00000  0.00000  Biso   1.000  O
  O2       1.0000 0.00102  0.00042  0.17139  Biso   1.000  O
  O3       1.0000 0.82607  0.00043  0.17138  Biso   1.000  O
  O4       1.0000 0.99987  0.82833  0.17139  Biso   1.000  O
  O5       1.0000 0.42148  0.40941  0.74861  Biso   1.000  O
  O6       1.0000 0.42046  0.40898  0.57723  Biso   1.000  O
  O7       1.0000 0.42162  0.58108  0.57723  Biso   1.000  O
  O8       1.0000 0.59541  0.40898  0.57722  Biso   1.000  O
  O9       1.0000 0.16873  0.16224  0.80342  Biso   1.000  O
  O10      1.0000 0.16417  0.16031  0.03190  Biso   1.000  O
  O11      1.0000 0.64622  0.86076  0.33095  Biso   1.000  O
  O12      1.0000 0.86386  0.63549  0.33095  Biso   1.000  O
  O13      1.0000 0.16736  0.63474  0.03190  Biso   1.000  O
  O14      1.0000 0.16671  0.86195  0.80342  Biso   1.000  O
  O15      1.0000 0.64824  0.16106  0.33095  Biso   1.000  O
  O16      1.0000 0.86066  0.16106  0.33095  Biso   1.000  O
  O17      1.0000 0.16392  0.86076  0.33095  Biso   1.000  O
  O18      1.0000 0.16913  0.63549  0.33095  Biso   1.000  O
  O19      1.0000 0.64647  0.16031  0.03190  Biso   1.000  O
  O20      1.0000 0.86346  0.16224  0.80342  Biso   1.000  O
  O21      1.0000 0.25275  0.24716  0.94519  Biso   1.000  O
  O22      1.0000 0.25732  0.24910  0.71671  Biso   1.000  O
  O23      1.0000 0.55763  0.77391  0.41766  Biso   1.000  O
  O24      1.0000 0.77527  0.54864  0.41766  Biso   1.000  O
  O25      1.0000 0.77502  0.24910  0.71671  Biso   1.000  O
  O26      1.0000 0.55803  0.24716  0.94519  Biso   1.000  O
  O27      1.0000 0.25236  0.77391  0.41766  Biso   1.000  O
  O28      1.0000 0.25757  0.54864  0.41766  Biso   1.000  O
  O29      1.0000 0.56082  0.24834  0.41766  Biso   1.000  O
  O30      1.0000 0.77325  0.24834  0.41766  Biso   1.000  O
  O31      1.0000 0.25413  0.77466  0.71671  Biso   1.000  O
  O32      1.0000 0.25478  0.54746  0.94519  Biso   1.000  O
  O33      1.0000 0.18677  0.17978  0.82973  Biso   1.000  O
  O34      1.0000 0.18169  0.17763  0.97079  Biso   1.000  O
  O35      1.0000 0.67276  0.79944  0.34835  Biso   1.000  O
  O36      1.0000 0.80176  0.66195  0.34835  Biso   1.000  O
  O37      1.0000 0.18494  0.66101  0.97079  Biso   1.000  O
  O38      1.0000 0.18422  0.80065  0.82973  Biso   1.000  O
  O39      1.0000 0.67531  0.17858  0.34835  Biso   1.000  O
  O40      1.0000 0.79851  0.17858  0.34835  Biso   1.000  O
  O41      1.0000 0.18137  0.79944  0.34835  Biso   1.000  O
  O42      1.0000 0.18717  0.66195  0.34835  Biso   1.000  O
  O43      1.0000 0.67308  0.17763  0.97079  Biso   1.000  O
  O44      1.0000 0.80135  0.17978  0.82973  Biso   1.000  O
  O45      1.0000 0.23472  0.22962  0.91889  Biso   1.000  O
  O46      1.0000 0.23980  0.23178  0.77782  Biso   1.000  O
  O47      1.0000 0.61973  0.74745  0.40026  Biso   1.000  O
  O48      1.0000 0.74873  0.60996  0.40026  Biso   1.000  O
  O49      1.0000 0.74841  0.23178  0.77782  Biso   1.000  O
  O50      1.0000 0.62014  0.22962  0.91889  Biso   1.000  O
  O51      1.0000 0.23431  0.74745  0.40026  Biso   1.000  O
  O52      1.0000 0.24012  0.60996  0.40026  Biso   1.000  O
  O53      1.0000 0.62298  0.23083  0.40026  Biso   1.000  O
  O54      1.0000 0.74618  0.23083  0.40026  Biso   1.000  O
  O55      1.0000 0.23655  0.74840  0.77782  Biso   1.000  O
  O56      1.0000 0.23727  0.60875  0.91889  Biso   1.000  O
  O57      1.0000 0.09595  0.09377  0.99228  Biso   1.000  O
  O58      1.0000 0.15400  0.15069  0.93546  Biso   1.000  O
  O59      1.0000 0.81754  0.82081  0.26479  Biso   1.000  O
  O60      1.0000 0.75949  0.76390  0.32161  Biso   1.000  O
  O61      1.0000 0.09411  0.82013  0.99228  Biso   1.000  O
  O62      1.0000 0.15139  0.76293  0.93546  Biso   1.000  O
  O63      1.0000 0.81938  0.09446  0.26479  Biso   1.000  O
  O64      1.0000 0.76210  0.15166  0.32161  Biso   1.000  O
  O65      1.0000 0.09572  0.82081  0.26479  Biso   1.000  O
  O66      1.0000 0.15368  0.76390  0.32161  Biso   1.000  O
  O67      1.0000 0.81777  0.09377  0.99228  Biso   1.000  O
  O68      1.0000 0.75982  0.15069  0.93546  Biso   1.000  O
  O69      1.0000 0.32554  0.31563  0.75633  Biso   1.000  O
  O70      1.0000 0.26749  0.25872  0.81315  Biso   1.000  O
  O71      1.0000 0.60395  0.58859  0.48382  Biso   1.000  O
  O72      1.0000 0.66200  0.64551  0.42700  Biso   1.000  O
  O73      1.0000 0.60372  0.31563  0.75633  Biso   1.000  O
  O74      1.0000 0.66167  0.25872  0.81315  Biso   1.000  O
  O75      1.0000 0.32577  0.58859  0.48382  Biso   1.000  O
  O76      1.0000 0.26781  0.64551  0.42700  Biso   1.000  O
  O77      1.0000 0.60211  0.31495  0.48382  Biso   1.000  O
  O78      1.0000 0.65939  0.25775  0.42700  Biso   1.000  O
  O79      1.0000 0.32738  0.58928  0.75633  Biso   1.000  O
  O80      1.0000 0.27010  0.64648  0.81315  Biso   1.000  O
  O81      1.0000 0.95675  0.95729  0.12854  Biso   1.000  O
  O82      1.0000 0.46474  0.45211  0.62008  Biso   1.000  O
  O83      1.0000 0.07294  0.07141  0.95493  Biso   1.000  O
  O84      1.0000 0.07365  0.07171  0.07400  Biso   1.000  O
  O85      1.0000 0.77983  0.90281  0.24261  Biso   1.000  O
  O86      1.0000 0.90057  0.78324  0.24261  Biso   1.000  O
  O87      1.0000 0.07170  0.78282  0.07400  Biso   1.000  O
  O88      1.0000 0.07180  0.90209  0.95493  Biso   1.000  O
  O89      1.0000 0.78097  0.07213  0.24261  Biso   1.000  O
  O90      1.0000 0.90252  0.07213  0.24261  Biso   1.000  O
  O91      1.0000 0.07350  0.90281  0.24261  Biso   1.000  O
  O92      1.0000 0.07270  0.78324  0.24261  Biso   1.000  O
  O93      1.0000 0.77997  0.07171  0.07400  Biso   1.000  O
  O94      1.0000 0.90081  0.07141  0.95493  Biso   1.000  O
  O95      1.0000 0.34855  0.33800  0.79369  Biso   1.000  O
  O96      1.0000 0.34784  0.33770  0.67462  Biso   1.000  O
  O97      1.0000 0.52092  0.62616  0.50600  Biso   1.000  O
  O98      1.0000 0.64166  0.50659  0.50600  Biso   1.000  O
  O99      1.0000 0.64152  0.33770  0.67462  Biso   1.000  O
  O100     1.0000 0.52067  0.33800  0.79369  Biso   1.000  O
  O101     1.0000 0.34879  0.62616  0.50600  Biso   1.000  O
  O102     1.0000 0.34799  0.50659  0.50600  Biso   1.000  O
  O103     1.0000 0.51897  0.33727  0.50600  Biso   1.000  O
  O104     1.0000 0.64052  0.33727  0.50600  Biso   1.000  O
  O105     1.0000 0.34979  0.62658  0.67462  Biso   1.000  O
  O106     1.0000 0.34969  0.50732  0.79369  Biso   1.000  O
