data_image0
_cell_length_a       18.3149
_cell_length_b       18.3149
_cell_length_c       18.3149
_cell_angle_alpha    60.3295
_cell_angle_beta     60.3295
_cell_angle_gamma    60.3295

_symmetry_space_group_name_H-M    "P 1"
_symmetry_int_tables_number       1

loop_
  _symmetry_equiv_pos_as_xyz
  'x, y, z'

loop_
  _atom_site_label
  _atom_site_occupancy
  _atom_site_fract_x
  _atom_site_fract_y
  _atom_site_fract_z
  _atom_site_thermal_displace_type
  _atom_site_B_iso_or_equiv
  _atom_site_type_symbol
  Zn1      1.0000 0.20609  0.20609  0.20609  Biso   1.000  Zn
  Zn2      1.0000 0.79391  0.79391  0.79391  Biso   1.000  Zn
  Zn3      1.0000 0.20677  0.37952  0.20677  Biso   1.000  Zn
  Zn4      1.0000 0.20677  0.20677  0.37952  Biso   1.000  Zn
  Zn5      1.0000 0.37952  0.20677  0.20677  Biso   1.000  Zn
  Zn6      1.0000 0.62048  0.79323  0.79323  Biso   1.000  Zn
  Zn7      1.0000 0.79323  0.79323  0.62048  Biso   1.000  Zn
  Zn8      1.0000 0.79323  0.62048  0.79323  Biso   1.000  Zn
  H1       1.0000 0.04260  0.34350  0.56530  Biso   1.000  H
  H2       1.0000 0.56530  0.04260  0.34350  Biso   1.000  H
  H3       1.0000 0.34350  0.56530  0.04260  Biso   1.000  H
  H4       1.0000 0.65650  0.95740  0.43470  Biso   1.000  H
  H5       1.0000 0.95740  0.43470  0.65650  Biso   1.000  H
  H6       1.0000 0.43470  0.65650  0.95740  Biso   1.000  H
  H7       1.0000 0.95740  0.65650  0.43470  Biso   1.000  H
  H8       1.0000 0.43470  0.95740  0.65650  Biso   1.000  H
  H9       1.0000 0.65650  0.43470  0.95740  Biso   1.000  H
  H10      1.0000 0.34350  0.04260  0.56530  Biso   1.000  H
  H11      1.0000 0.04260  0.56530  0.34350  Biso   1.000  H
  H12      1.0000 0.56530  0.34350  0.04260  Biso   1.000  H
  H13      1.0000 0.04880  0.55860  0.04880  Biso   1.000  H
  H14      1.0000 0.04170  0.34450  0.04170  Biso   1.000  H
  H15      1.0000 0.04880  0.04880  0.55860  Biso   1.000  H
  H16      1.0000 0.04170  0.04170  0.34450  Biso   1.000  H
  H17      1.0000 0.55860  0.04880  0.04880  Biso   1.000  H
  H18      1.0000 0.34450  0.04170  0.04170  Biso   1.000  H
  H19      1.0000 0.44140  0.95120  0.95120  Biso   1.000  H
  H20      1.0000 0.65550  0.95830  0.95830  Biso   1.000  H
  H21      1.0000 0.95120  0.95120  0.44140  Biso   1.000  H
  H22      1.0000 0.95830  0.95830  0.65550  Biso   1.000  H
  H23      1.0000 0.95120  0.44140  0.95120  Biso   1.000  H
  H24      1.0000 0.95830  0.65550  0.95830  Biso   1.000  H
  C1       1.0000 0.02770  0.40510  0.53870  Biso   1.000  C
  C2       1.0000 0.53870  0.02770  0.40510  Biso   1.000  C
  C3       1.0000 0.40510  0.53870  0.02770  Biso   1.000  C
  C4       1.0000 0.59490  0.97230  0.46130  Biso   1.000  C
  C5       1.0000 0.97230  0.46130  0.59490  Biso   1.000  C
  C6       1.0000 0.46130  0.59490  0.97230  Biso   1.000  C
  C7       1.0000 0.97230  0.59490  0.46130  Biso   1.000  C
  C8       1.0000 0.46130  0.97230  0.59490  Biso   1.000  C
  C9       1.0000 0.59490  0.46130  0.97230  Biso   1.000  C
  C10      1.0000 0.40510  0.02770  0.53870  Biso   1.000  C
  C11      1.0000 0.02770  0.53870  0.40510  Biso   1.000  C
  C12      1.0000 0.53870  0.40510  0.02770  Biso   1.000  C
  C13      1.0000 0.11130  0.39010  0.11130  Biso   1.000  C
  C14      1.0000 0.05390  0.44400  0.05390  Biso   1.000  C
  C15      1.0000 0.02940  0.53530  0.02940  Biso   1.000  C
  C16      1.0000 0.02520  0.40600  0.02520  Biso   1.000  C
  C17      1.0000 0.11130  0.11130  0.39010  Biso   1.000  C
  C18      1.0000 0.05390  0.05390  0.44400  Biso   1.000  C
  C19      1.0000 0.02940  0.02940  0.53530  Biso   1.000  C
  C20      1.0000 0.02520  0.02520  0.40600  Biso   1.000  C
  C21      1.0000 0.39010  0.11130  0.11130  Biso   1.000  C
  C22      1.0000 0.44400  0.05390  0.05390  Biso   1.000  C
  C23      1.0000 0.53530  0.02940  0.02940  Biso   1.000  C
  C24      1.0000 0.40600  0.02520  0.02520  Biso   1.000  C
  C25      1.0000 0.60990  0.88870  0.88870  Biso   1.000  C
  C26      1.0000 0.55600  0.94610  0.94610  Biso   1.000  C
  C27      1.0000 0.46470  0.97060  0.97060  Biso   1.000  C
  C28      1.0000 0.59400  0.97480  0.97480  Biso   1.000  C
  C29      1.0000 0.88870  0.88870  0.60990  Biso   1.000  C
  C30      1.0000 0.94610  0.94610  0.55600  Biso   1.000  C
  C31      1.0000 0.97060  0.97060  0.46470  Biso   1.000  C
  C32      1.0000 0.97480  0.97480  0.59400  Biso   1.000  C
  C33      1.0000 0.88870  0.60990  0.88870  Biso   1.000  C
  C34      1.0000 0.94610  0.55600  0.94610  Biso   1.000  C
  C35      1.0000 0.97060  0.46470  0.97060  Biso   1.000  C
  C36      1.0000 0.97480  0.59400  0.97480  Biso   1.000  C
  C37      1.0000 0.11170  0.38940  0.38940  Biso   1.000  C
  C38      1.0000 0.05990  0.44245  0.44245  Biso   1.000  C
  C39      1.0000 0.38940  0.11170  0.38940  Biso   1.000  C
  C40      1.0000 0.44245  0.05990  0.44245  Biso   1.000  C
  C41      1.0000 0.38940  0.38940  0.11170  Biso   1.000  C
  C42      1.0000 0.44245  0.44245  0.05990  Biso   1.000  C
  C43      1.0000 0.61060  0.88830  0.61060  Biso   1.000  C
  C44      1.0000 0.55755  0.94010  0.55755  Biso   1.000  C
  C45      1.0000 0.88830  0.61060  0.61060  Biso   1.000  C
  C46      1.0000 0.94010  0.55755  0.55755  Biso   1.000  C
  C47      1.0000 0.61060  0.61060  0.88830  Biso   1.000  C
  C48      1.0000 0.55755  0.55755  0.94010  Biso   1.000  C
  O1       1.0000 0.13529  0.42759  0.30119  Biso   1.000  O
  O2       1.0000 0.30119  0.13529  0.42759  Biso   1.000  O
  O3       1.0000 0.42759  0.30119  0.13529  Biso   1.000  O
  O4       1.0000 0.57241  0.86471  0.69881  Biso   1.000  O
  O5       1.0000 0.86471  0.69881  0.57241  Biso   1.000  O
  O6       1.0000 0.69881  0.57241  0.86471  Biso   1.000  O
  O7       1.0000 0.86471  0.57241  0.69881  Biso   1.000  O
  O8       1.0000 0.69881  0.86471  0.57241  Biso   1.000  O
  O9       1.0000 0.57241  0.69881  0.86471  Biso   1.000  O
  O10      1.0000 0.42759  0.13529  0.30119  Biso   1.000  O
  O11      1.0000 0.13529  0.30119  0.42759  Biso   1.000  O
  O12      1.0000 0.30119  0.42759  0.13529  Biso   1.000  O
  O13      1.0000 0.25153  0.25153  0.25153  Biso   1.000  O
  O14      1.0000 0.74847  0.74847  0.74847  Biso   1.000  O
  O15      1.0000 0.13410  0.30220  0.13410  Biso   1.000  O
  O16      1.0000 0.13380  0.42820  0.13380  Biso   1.000  O
  O17      1.0000 0.13410  0.13410  0.30220  Biso   1.000  O
  O18      1.0000 0.13380  0.13380  0.42820  Biso   1.000  O
  O19      1.0000 0.30220  0.13410  0.13410  Biso   1.000  O
  O20      1.0000 0.42820  0.13380  0.13380  Biso   1.000  O
  O21      1.0000 0.69780  0.86590  0.86590  Biso   1.000  O
  O22      1.0000 0.57180  0.86620  0.86620  Biso   1.000  O
  O23      1.0000 0.86590  0.86590  0.69780  Biso   1.000  O
  O24      1.0000 0.86620  0.86620  0.57180  Biso   1.000  O
  O25      1.0000 0.86590  0.69780  0.86590  Biso   1.000  O
  O26      1.0000 0.86620  0.57180  0.86620  Biso   1.000  O
  Zn9      1.0000 1.00000  1.00000  0.00000  Biso   1.000  Zn
  Zn10     1.0000 0.00101  0.00043  0.17128  Biso   1.000  Zn
  Zn11     1.0000 0.82617  0.00043  0.17128  Biso   1.000  Zn
  Zn12     1.0000 0.99986  0.82844  0.17128  Biso   1.000  Zn
  Zn13     1.0000 0.42117  0.40912  0.74811  Biso   1.000  Zn
  Zn14     1.0000 0.42016  0.40869  0.57683  Biso   1.000  Zn
  Zn15     1.0000 0.42132  0.58068  0.57683  Biso   1.000  Zn
  Zn16     1.0000 0.59500  0.40869  0.57683  Biso   1.000  Zn
  H25      1.0000 0.16841  0.16193  0.80306  Biso   1.000  H
  H26      1.0000 0.16384  0.16000  0.03208  Biso   1.000  H
  H27      1.0000 0.64595  0.86106  0.33053  Biso   1.000  H
  H28      1.0000 0.86414  0.63524  0.33053  Biso   1.000  H
  H29      1.0000 0.16704  0.63450  0.03208  Biso   1.000  H
  H30      1.0000 0.16639  0.86224  0.80306  Biso   1.000  H
  H31      1.0000 0.64797  0.16075  0.33053  Biso   1.000  H
  H32      1.0000 0.86095  0.16075  0.33053  Biso   1.000  H
  H33      1.0000 0.16359  0.86106  0.33053  Biso   1.000  H
  H34      1.0000 0.16880  0.63524  0.33053  Biso   1.000  H
  H35      1.0000 0.64621  0.16000  0.03208  Biso   1.000  H
  H36      1.0000 0.86375  0.16193  0.80306  Biso   1.000  H
  H37      1.0000 0.25277  0.24718  0.94505  Biso   1.000  H
  H38      1.0000 0.25733  0.24912  0.71602  Biso   1.000  H
  H39      1.0000 0.55703  0.77387  0.41757  Biso   1.000  H
  H40      1.0000 0.77522  0.54806  0.41757  Biso   1.000  H
  H41      1.0000 0.77497  0.24912  0.71602  Biso   1.000  H
  H42      1.0000 0.55743  0.24718  0.94505  Biso   1.000  H
  H43      1.0000 0.25237  0.77387  0.41757  Biso   1.000  H
  H44      1.0000 0.25758  0.54806  0.41757  Biso   1.000  H
  H45      1.0000 0.56022  0.24837  0.41757  Biso   1.000  H
  H46      1.0000 0.77320  0.24837  0.41757  Biso   1.000  H
  H47      1.0000 0.25414  0.77462  0.71602  Biso   1.000  H
  H48      1.0000 0.25478  0.54688  0.94505  Biso   1.000  H
  C49      1.0000 0.18643  0.17946  0.82945  Biso   1.000  C
  C50      1.0000 0.18135  0.17731  0.97092  Biso   1.000  C
  C51      1.0000 0.67258  0.79968  0.34792  Biso   1.000  C
  C52      1.0000 0.80199  0.66179  0.34792  Biso   1.000  C
  C53      1.0000 0.18460  0.66084  0.97092  Biso   1.000  C
  C54      1.0000 0.18388  0.80089  0.82945  Biso   1.000  C
  C55      1.0000 0.67513  0.17825  0.34792  Biso   1.000  C
  C56      1.0000 0.79873  0.17825  0.34792  Biso   1.000  C
  C57      1.0000 0.18103  0.79968  0.34792  Biso   1.000  C
  C58      1.0000 0.18683  0.66179  0.34792  Biso   1.000  C
  C59      1.0000 0.67290  0.17731  0.97092  Biso   1.000  C
  C60      1.0000 0.80158  0.17946  0.82945  Biso   1.000  C
  C61      1.0000 0.23474  0.22966  0.91866  Biso   1.000  C
  C62      1.0000 0.23982  0.23181  0.77719  Biso   1.000  C
  C63      1.0000 0.61919  0.74733  0.40019  Biso   1.000  C
  C64      1.0000 0.74859  0.60944  0.40019  Biso   1.000  C
  C65      1.0000 0.74828  0.23181  0.77719  Biso   1.000  C
  C66      1.0000 0.61959  0.22966  0.91866  Biso   1.000  C
  C67      1.0000 0.23434  0.74733  0.40019  Biso   1.000  C
  C68      1.0000 0.24014  0.60944  0.40019  Biso   1.000  C
  C69      1.0000 0.62244  0.23086  0.40019  Biso   1.000  C
  C70      1.0000 0.74605  0.23086  0.40019  Biso   1.000  C
  C71      1.0000 0.23657  0.74828  0.77719  Biso   1.000  C
  C72      1.0000 0.23729  0.60823  0.91866  Biso   1.000  C
  C73      1.0000 0.09577  0.09361  0.99240  Biso   1.000  C
  C74      1.0000 0.15358  0.15029  0.93581  Biso   1.000  C
  C75      1.0000 0.81776  0.82104  0.26452  Biso   1.000  C
  C76      1.0000 0.75995  0.76436  0.32110  Biso   1.000  C
  C77      1.0000 0.09393  0.82035  0.99240  Biso   1.000  C
  C78      1.0000 0.15098  0.76339  0.93581  Biso   1.000  C
  C79      1.0000 0.81960  0.09429  0.26452  Biso   1.000  C
  C80      1.0000 0.76255  0.15125  0.32110  Biso   1.000  C
  C81      1.0000 0.09554  0.82104  0.26452  Biso   1.000  C
  C82      1.0000 0.15326  0.76436  0.32110  Biso   1.000  C
  C83      1.0000 0.81799  0.09361  0.99240  Biso   1.000  C
  C84      1.0000 0.76027  0.15029  0.93581  Biso   1.000  C
  C85      1.0000 0.32540  0.31551  0.75571  Biso   1.000  C
  C86      1.0000 0.26759  0.25883  0.81230  Biso   1.000  C
  C87      1.0000 0.60341  0.58808  0.48359  Biso   1.000  C
  C88      1.0000 0.66122  0.64476  0.42700  Biso   1.000  C
  C89      1.0000 0.60318  0.31551  0.75571  Biso   1.000  C
  C90      1.0000 0.66090  0.25883  0.81230  Biso   1.000  C
  C91      1.0000 0.32563  0.58808  0.48359  Biso   1.000  C
  C92      1.0000 0.26791  0.64476  0.42700  Biso   1.000  C
  C93      1.0000 0.60157  0.31483  0.48359  Biso   1.000  C
  C94      1.0000 0.65862  0.25786  0.42700  Biso   1.000  C
  C95      1.0000 0.32724  0.58876  0.75571  Biso   1.000  C
  C96      1.0000 0.27019  0.64573  0.81230  Biso   1.000  C
  O27      1.0000 0.95677  0.95732  0.12846  Biso   1.000  O
  O28      1.0000 0.46441  0.45179  0.61965  Biso   1.000  O
  O29      1.0000 0.07294  0.07142  0.95479  Biso   1.000  O
  O30      1.0000 0.07364  0.07172  0.07401  Biso   1.000  O
  O31      1.0000 0.77979  0.90294  0.24251  Biso   1.000  O
  O32      1.0000 0.90069  0.78322  0.24251  Biso   1.000  O
  O33      1.0000 0.07170  0.78280  0.07401  Biso   1.000  O
  O34      1.0000 0.07180  0.90222  0.95479  Biso   1.000  O
  O35      1.0000 0.78093  0.07214  0.24251  Biso   1.000  O
  O36      1.0000 0.90264  0.07214  0.24251  Biso   1.000  O
  O37      1.0000 0.07350  0.90294  0.24251  Biso   1.000  O
  O38      1.0000 0.07270  0.78322  0.24251  Biso   1.000  O
  O39      1.0000 0.77994  0.07172  0.07401  Biso   1.000  O
  O40      1.0000 0.90093  0.07142  0.95479  Biso   1.000  O
  O41      1.0000 0.34823  0.33770  0.79332  Biso   1.000  O
  O42      1.0000 0.34753  0.33740  0.67409  Biso   1.000  O
  O43      1.0000 0.52048  0.62590  0.50560  Biso   1.000  O
  O44      1.0000 0.64138  0.50618  0.50560  Biso   1.000  O
  O45      1.0000 0.64124  0.33740  0.67409  Biso   1.000  O
  O46      1.0000 0.52024  0.33770  0.79332  Biso   1.000  O
  O47      1.0000 0.34848  0.62590  0.50560  Biso   1.000  O
  O48      1.0000 0.34767  0.50618  0.50560  Biso   1.000  O
  O49      1.0000 0.51854  0.33698  0.50560  Biso   1.000  O
  O50      1.0000 0.64024  0.33698  0.50560  Biso   1.000  O
  O51      1.0000 0.34947  0.62632  0.67409  Biso   1.000  O
  O52      1.0000 0.34937  0.50690  0.79332  Biso   1.000  O
