data_image0
_cell_length_a       18.3149
_cell_length_b       18.3149
_cell_length_c       18.3149
_cell_angle_alpha    60.3295
_cell_angle_beta     60.3295
_cell_angle_gamma    60.3295

_symmetry_space_group_name_H-M    "P 1"
_symmetry_int_tables_number       1

loop_
  _symmetry_equiv_pos_as_xyz
  'x, y, z'

loop_
  _atom_site_label
  _atom_site_occupancy
  _atom_site_fract_x
  _atom_site_fract_y
  _atom_site_fract_z
  _atom_site_thermal_displace_type
  _atom_site_B_iso_or_equiv
  _atom_site_type_symbol
  C1       1.0000 0.20609  0.20609  0.20609  Biso   1.000  C
  C2       1.0000 0.79391  0.79391  0.79391  Biso   1.000  C
  C3       1.0000 0.20677  0.37952  0.20677  Biso   1.000  C
  C4       1.0000 0.20677  0.20677  0.37952  Biso   1.000  C
  C5       1.0000 0.37952  0.20677  0.20677  Biso   1.000  C
  C6       1.0000 0.62048  0.79323  0.79323  Biso   1.000  C
  C7       1.0000 0.79323  0.79323  0.62048  Biso   1.000  C
  C8       1.0000 0.79323  0.62048  0.79323  Biso   1.000  C
  C9       1.0000 0.04260  0.34350  0.56530  Biso   1.000  C
  C10      1.0000 0.56530  0.04260  0.34350  Biso   1.000  C
  C11      1.0000 0.34350  0.56530  0.04260  Biso   1.000  C
  C12      1.0000 0.65650  0.95740  0.43470  Biso   1.000  C
  C13      1.0000 0.95740  0.43470  0.65650  Biso   1.000  C
  C14      1.0000 0.43470  0.65650  0.95740  Biso   1.000  C
  C15      1.0000 0.95740  0.65650  0.43470  Biso   1.000  C
  C16      1.0000 0.43470  0.95740  0.65650  Biso   1.000  C
  C17      1.0000 0.65650  0.43470  0.95740  Biso   1.000  C
  C18      1.0000 0.34350  0.04260  0.56530  Biso   1.000  C
  C19      1.0000 0.04260  0.56530  0.34350  Biso   1.000  C
  C20      1.0000 0.56530  0.34350  0.04260  Biso   1.000  C
  C21      1.0000 0.04880  0.55860  0.04880  Biso   1.000  C
  C22      1.0000 0.04170  0.34450  0.04170  Biso   1.000  C
  C23      1.0000 0.04880  0.04880  0.55860  Biso   1.000  C
  C24      1.0000 0.04170  0.04170  0.34450  Biso   1.000  C
  C25      1.0000 0.55860  0.04880  0.04880  Biso   1.000  C
  C26      1.0000 0.34450  0.04170  0.04170  Biso   1.000  C
  C27      1.0000 0.44140  0.95120  0.95120  Biso   1.000  C
  C28      1.0000 0.65550  0.95830  0.95830  Biso   1.000  C
  C29      1.0000 0.95120  0.95120  0.44140  Biso   1.000  C
  C30      1.0000 0.95830  0.95830  0.65550  Biso   1.000  C
  C31      1.0000 0.95120  0.44140  0.95120  Biso   1.000  C
  C32      1.0000 0.95830  0.65550  0.95830  Biso   1.000  C
  C33      1.0000 0.02770  0.40510  0.53870  Biso   1.000  C
  C34      1.0000 0.53870  0.02770  0.40510  Biso   1.000  C
  C35      1.0000 0.40510  0.53870  0.02770  Biso   1.000  C
  C36      1.0000 0.59490  0.97230  0.46130  Biso   1.000  C
  C37      1.0000 0.97230  0.46130  0.59490  Biso   1.000  C
  C38      1.0000 0.46130  0.59490  0.97230  Biso   1.000  C
  C39      1.0000 0.97230  0.59490  0.46130  Biso   1.000  C
  C40      1.0000 0.46130  0.97230  0.59490  Biso   1.000  C
  C41      1.0000 0.59490  0.46130  0.97230  Biso   1.000  C
  C42      1.0000 0.40510  0.02770  0.53870  Biso   1.000  C
  C43      1.0000 0.02770  0.53870  0.40510  Biso   1.000  C
  C44      1.0000 0.53870  0.40510  0.02770  Biso   1.000  C
  C45      1.0000 0.11130  0.39010  0.11130  Biso   1.000  C
  C46      1.0000 0.05390  0.44400  0.05390  Biso   1.000  C
  C47      1.0000 0.02940  0.53530  0.02940  Biso   1.000  C
  C48      1.0000 0.02520  0.40600  0.02520  Biso   1.000  C
  C49      1.0000 0.11130  0.11130  0.39010  Biso   1.000  C
  C50      1.0000 0.05390  0.05390  0.44400  Biso   1.000  C
  C51      1.0000 0.02940  0.02940  0.53530  Biso   1.000  C
  C52      1.0000 0.02520  0.02520  0.40600  Biso   1.000  C
  C53      1.0000 0.39010  0.11130  0.11130  Biso   1.000  C
  C54      1.0000 0.44400  0.05390  0.05390  Biso   1.000  C
  C55      1.0000 0.53530  0.02940  0.02940  Biso   1.000  C
  C56      1.0000 0.40600  0.02520  0.02520  Biso   1.000  C
  C57      1.0000 0.60990  0.88870  0.88870  Biso   1.000  C
  C58      1.0000 0.55600  0.94610  0.94610  Biso   1.000  C
  C59      1.0000 0.46470  0.97060  0.97060  Biso   1.000  C
  C60      1.0000 0.59400  0.97480  0.97480  Biso   1.000  C
  C61      1.0000 0.88870  0.88870  0.60990  Biso   1.000  C
  C62      1.0000 0.94610  0.94610  0.55600  Biso   1.000  C
  C63      1.0000 0.97060  0.97060  0.46470  Biso   1.000  C
  C64      1.0000 0.97480  0.97480  0.59400  Biso   1.000  C
  C65      1.0000 0.88870  0.60990  0.88870  Biso   1.000  C
  C66      1.0000 0.94610  0.55600  0.94610  Biso   1.000  C
  C67      1.0000 0.97060  0.46470  0.97060  Biso   1.000  C
  C68      1.0000 0.97480  0.59400  0.97480  Biso   1.000  C
  C69      1.0000 0.11170  0.38940  0.38940  Biso   1.000  C
  C70      1.0000 0.05990  0.44245  0.44245  Biso   1.000  C
  C71      1.0000 0.38940  0.11170  0.38940  Biso   1.000  C
  C72      1.0000 0.44245  0.05990  0.44245  Biso   1.000  C
  C73      1.0000 0.38940  0.38940  0.11170  Biso   1.000  C
  C74      1.0000 0.44245  0.44245  0.05990  Biso   1.000  C
  C75      1.0000 0.61060  0.88830  0.61060  Biso   1.000  C
  C76      1.0000 0.55755  0.94010  0.55755  Biso   1.000  C
  C77      1.0000 0.88830  0.61060  0.61060  Biso   1.000  C
  C78      1.0000 0.94010  0.55755  0.55755  Biso   1.000  C
  C79      1.0000 0.61060  0.61060  0.88830  Biso   1.000  C
  C80      1.0000 0.55755  0.55755  0.94010  Biso   1.000  C
  C81      1.0000 0.13529  0.42759  0.30119  Biso   1.000  C
  C82      1.0000 0.30119  0.13529  0.42759  Biso   1.000  C
  C83      1.0000 0.42759  0.30119  0.13529  Biso   1.000  C
  C84      1.0000 0.57241  0.86471  0.69881  Biso   1.000  C
  C85      1.0000 0.86471  0.69881  0.57241  Biso   1.000  C
  C86      1.0000 0.69881  0.57241  0.86471  Biso   1.000  C
  C87      1.0000 0.86471  0.57241  0.69881  Biso   1.000  C
  C88      1.0000 0.69881  0.86471  0.57241  Biso   1.000  C
  C89      1.0000 0.57241  0.69881  0.86471  Biso   1.000  C
  C90      1.0000 0.42759  0.13529  0.30119  Biso   1.000  C
  C91      1.0000 0.13529  0.30119  0.42759  Biso   1.000  C
  C92      1.0000 0.30119  0.42759  0.13529  Biso   1.000  C
  C93      1.0000 0.25153  0.25153  0.25153  Biso   1.000  C
  C94      1.0000 0.74847  0.74847  0.74847  Biso   1.000  C
  C95      1.0000 0.13410  0.30220  0.13410  Biso   1.000  C
  C96      1.0000 0.13380  0.42820  0.13380  Biso   1.000  C
  C97      1.0000 0.13410  0.13410  0.30220  Biso   1.000  C
  C98      1.0000 0.13380  0.13380  0.42820  Biso   1.000  C
  C99      1.0000 0.30220  0.13410  0.13410  Biso   1.000  C
  C100     1.0000 0.42820  0.13380  0.13380  Biso   1.000  C
  C101     1.0000 0.69780  0.86590  0.86590  Biso   1.000  C
  C102     1.0000 0.57180  0.86620  0.86620  Biso   1.000  C
  C103     1.0000 0.86590  0.86590  0.69780  Biso   1.000  C
  C104     1.0000 0.86620  0.86620  0.57180  Biso   1.000  C
  C105     1.0000 0.86590  0.69780  0.86590  Biso   1.000  C
  C106     1.0000 0.86620  0.57180  0.86620  Biso   1.000  C
  O1       1.0000 0.90575  0.60172  0.59367  Biso   1.000  O
  O2       1.0000 0.31524  0.18151  0.01492  Biso   1.000  O
  O3       1.0000 0.31408  0.00855  0.01492  Biso   1.000  O
  O4       1.0000 0.90459  0.42876  0.59367  Biso   1.000  O
  O5       1.0000 0.90427  0.60163  0.42119  Biso   1.000  O
  O6       1.0000 0.72953  0.60187  0.59377  Biso   1.000  O
  O7       1.0000 0.31556  0.00865  0.18739  Biso   1.000  O
  O8       1.0000 0.49030  0.00840  0.01482  Biso   1.000  O
  O9       1.0000 0.06779  0.23978  0.45225  Biso   1.000  O
  O10      1.0000 0.06038  0.46269  0.24371  Biso   1.000  O
  O11      1.0000 0.76405  0.24161  0.75142  Biso   1.000  O
  O12      1.0000 0.54553  0.46147  0.75369  Biso   1.000  O
  O13      1.0000 0.06514  0.46343  0.74896  Biso   1.000  O
  O14      1.0000 0.15527  0.85057  0.15634  Biso   1.000  O
  O15      1.0000 0.15743  0.84791  0.36488  Biso   1.000  O
  O16      1.0000 0.45903  0.85072  0.85717  Biso   1.000  O
  O17      1.0000 0.67227  0.84676  0.85490  Biso   1.000  O
  O18      1.0000 0.14948  0.37144  0.85963  Biso   1.000  O
  O19      1.0000 0.15204  0.37049  0.15634  Biso   1.000  O
  O20      1.0000 0.15945  0.14759  0.36488  Biso   1.000  O
  O21      1.0000 0.45579  0.36867  0.85717  Biso   1.000  O
  O22      1.0000 0.67430  0.14881  0.85490  Biso   1.000  O
  O23      1.0000 0.15470  0.14684  0.85963  Biso   1.000  O
  O24      1.0000 0.06456  0.75971  0.45225  Biso   1.000  O
  O25      1.0000 0.06240  0.76236  0.24371  Biso   1.000  O
  O26      1.0000 0.76080  0.75955  0.75142  Biso   1.000  O
  O27      1.0000 0.54756  0.76352  0.75369  Biso   1.000  O
  O28      1.0000 0.07036  0.23883  0.74896  Biso   1.000  O
  O29      1.0000 0.54667  0.76159  0.45432  Biso   1.000  O
  O30      1.0000 0.76046  0.76216  0.24145  Biso   1.000  O
  O31      1.0000 0.67316  0.84868  0.15427  Biso   1.000  O
  O32      1.0000 0.45937  0.84812  0.36714  Biso   1.000  O
  O33      1.0000 0.99828  0.41989  0.41640  Biso   1.000  O
  O34      1.0000 0.05746  0.36228  0.35611  Biso   1.000  O
  O35      1.0000 0.08550  0.26505  0.39098  Biso   1.000  O
  O36      1.0000 0.07963  0.40133  0.26932  Biso   1.000  O
  O37      1.0000 0.71933  0.42373  0.68936  Biso   1.000  O
  O38      1.0000 0.66487  0.36600  0.74384  Biso   1.000  O
  O39      1.0000 0.70179  0.26756  0.76916  Biso   1.000  O
  O40      1.0000 0.57307  0.40019  0.77093  Biso   1.000  O
  O41      1.0000 0.08083  0.40206  0.76876  Biso   1.000  O
  O42      1.0000 0.21970  0.91583  0.19219  Biso   1.000  O
  O43      1.0000 0.15974  0.85693  0.25248  Biso   1.000  O
  O44      1.0000 0.13762  0.83222  0.21761  Biso   1.000  O
  O45      1.0000 0.13767  0.83133  0.33927  Biso   1.000  O
  O46      1.0000 0.49869  0.91635  0.91923  Biso   1.000  O
  O47      1.0000 0.55237  0.85954  0.86475  Biso   1.000  O
  O48      1.0000 0.52134  0.83288  0.83943  Biso   1.000  O
  O49      1.0000 0.64421  0.83010  0.83766  Biso   1.000  O
  O50      1.0000 0.13320  0.34558  0.83983  Biso   1.000  O
  O51      1.0000 0.22155  0.19039  0.19219  Biso   1.000  O
  O52      1.0000 0.16237  0.24800  0.25248  Biso   1.000  O
  O53      1.0000 0.13434  0.34522  0.21761  Biso   1.000  O
  O54      1.0000 0.14021  0.20894  0.33927  Biso   1.000  O
  O55      1.0000 0.50051  0.18655  0.91923  Biso   1.000  O
  O56      1.0000 0.55496  0.24427  0.86475  Biso   1.000  O
  O57      1.0000 0.51804  0.34271  0.83943  Biso   1.000  O
  O58      1.0000 0.64677  0.21009  0.83766  Biso   1.000  O
  O59      1.0000 0.13901  0.20821  0.83983  Biso   1.000  O
  O60      1.0000 0.00013  0.69444  0.41640  Biso   1.000  O
  O61      1.0000 0.06009  0.75334  0.35611  Biso   1.000  O
  O62      1.0000 0.08222  0.77805  0.39098  Biso   1.000  O
  O63      1.0000 0.08217  0.77894  0.26932  Biso   1.000  O
  O64      1.0000 0.72115  0.69393  0.68936  Biso   1.000  O
  O65      1.0000 0.66746  0.75073  0.74384  Biso   1.000  O
  O66      1.0000 0.69849  0.77740  0.76916  Biso   1.000  O
  O67      1.0000 0.57563  0.78017  0.77093  Biso   1.000  O
  O68      1.0000 0.08663  0.26469  0.76876  Biso   1.000  O
  O69      1.0000 0.72623  0.69522  0.40970  Biso   1.000  O
  O70      1.0000 0.66377  0.75167  0.35828  Biso   1.000  O
  O71      1.0000 0.57377  0.77865  0.39325  Biso   1.000  O
  O72      1.0000 0.69831  0.77953  0.26814  Biso   1.000  O
  O73      1.0000 0.99839  0.42549  0.68148  Biso   1.000  O
  O74      1.0000 0.05868  0.36462  0.74394  Biso   1.000  O
  O75      1.0000 0.49361  0.91506  0.19889  Biso   1.000  O
  O76      1.0000 0.55607  0.85861  0.25031  Biso   1.000  O
  O77      1.0000 0.64606  0.83162  0.21534  Biso   1.000  O
  O78      1.0000 0.52153  0.83074  0.34045  Biso   1.000  O
  O79      1.0000 0.22144  0.18479  0.92711  Biso   1.000  O
  O80      1.0000 0.16116  0.24566  0.86465  Biso   1.000  O
  O81      1.0000 0.97837  0.50424  0.37118  Biso   1.000  O
  O82      1.0000 0.97958  0.37668  0.49934  Biso   1.000  O
  O83      1.0000 0.67961  0.50595  0.66326  Biso   1.000  O
  O84      1.0000 0.80567  0.38006  0.66720  Biso   1.000  O
  O85      1.0000 0.97963  0.50694  0.66444  Biso   1.000  O
  O86      1.0000 0.24031  0.93513  0.23741  Biso   1.000  O
  O87      1.0000 0.23825  0.93689  0.10925  Biso   1.000  O
  O88      1.0000 0.53907  0.93303  0.94533  Biso   1.000  O
  O89      1.0000 0.41218  0.93589  0.94139  Biso   1.000  O
  O90      1.0000 0.24105  0.23033  0.94415  Biso   1.000  O
  O91      1.0000 0.24146  0.10603  0.23741  Biso   1.000  O
  O92      1.0000 0.24025  0.23360  0.10925  Biso   1.000  O
  O93      1.0000 0.54022  0.10433  0.94533  Biso   1.000  O
  O94      1.0000 0.41417  0.23022  0.94139  Biso   1.000  O
  O95      1.0000 0.24020  0.10333  0.94415  Biso   1.000  O
  O96      1.0000 0.97952  0.67515  0.37118  Biso   1.000  O
  O97      1.0000 0.98158  0.67338  0.49934  Biso   1.000  O
  O98      1.0000 0.68076  0.67725  0.66326  Biso   1.000  O
  O99      1.0000 0.80765  0.67439  0.66720  Biso   1.000  O
  O100     1.0000 0.97878  0.37995  0.66444  Biso   1.000  O
  O101     1.0000 0.86177  0.55829  0.55027  Biso   1.000  O
  O102     1.0000 0.80710  0.67416  0.37187  Biso   1.000  O
  O103     1.0000 0.68115  0.67673  0.49146  Biso   1.000  O
  O104     1.0000 0.35806  0.05199  0.05832  Biso   1.000  O
  O105     1.0000 0.41274  0.93612  0.23672  Biso   1.000  O
  O106     1.0000 0.53869  0.93355  0.11713  Biso   1.000  O
