data_image0
_cell_length_a       18.3149
_cell_length_b       18.3149
_cell_length_c       18.3149
_cell_angle_alpha    60.3295
_cell_angle_beta     60.3295
_cell_angle_gamma    60.3295

_symmetry_space_group_name_H-M    "P 1"
_symmetry_int_tables_number       1

loop_
  _symmetry_equiv_pos_as_xyz
  'x, y, z'

loop_
  _atom_site_label
  _atom_site_occupancy
  _atom_site_fract_x
  _atom_site_fract_y
  _atom_site_fract_z
  _atom_site_thermal_displace_type
  _atom_site_B_iso_or_equiv
  _atom_site_type_symbol
  C1       1.0000 0.20609  0.20609  0.20609  Biso   1.000  C
  C2       1.0000 0.79391  0.79391  0.79391  Biso   1.000  C
  C3       1.0000 0.20677  0.37952  0.20677  Biso   1.000  C
  C4       1.0000 0.20677  0.20677  0.37952  Biso   1.000  C
  C5       1.0000 0.37952  0.20677  0.20677  Biso   1.000  C
  C6       1.0000 0.62048  0.79323  0.79323  Biso   1.000  C
  C7       1.0000 0.79323  0.79323  0.62048  Biso   1.000  C
  C8       1.0000 0.79323  0.62048  0.79323  Biso   1.000  C
  C9       1.0000 0.04260  0.34350  0.56530  Biso   1.000  C
  C10      1.0000 0.56530  0.04260  0.34350  Biso   1.000  C
  C11      1.0000 0.34350  0.56530  0.04260  Biso   1.000  C
  C12      1.0000 0.65650  0.95740  0.43470  Biso   1.000  C
  C13      1.0000 0.95740  0.43470  0.65650  Biso   1.000  C
  C14      1.0000 0.43470  0.65650  0.95740  Biso   1.000  C
  C15      1.0000 0.95740  0.65650  0.43470  Biso   1.000  C
  C16      1.0000 0.43470  0.95740  0.65650  Biso   1.000  C
  C17      1.0000 0.65650  0.43470  0.95740  Biso   1.000  C
  C18      1.0000 0.34350  0.04260  0.56530  Biso   1.000  C
  C19      1.0000 0.04260  0.56530  0.34350  Biso   1.000  C
  C20      1.0000 0.56530  0.34350  0.04260  Biso   1.000  C
  C21      1.0000 0.04880  0.55860  0.04880  Biso   1.000  C
  C22      1.0000 0.04170  0.34450  0.04170  Biso   1.000  C
  C23      1.0000 0.04880  0.04880  0.55860  Biso   1.000  C
  C24      1.0000 0.04170  0.04170  0.34450  Biso   1.000  C
  C25      1.0000 0.55860  0.04880  0.04880  Biso   1.000  C
  C26      1.0000 0.34450  0.04170  0.04170  Biso   1.000  C
  C27      1.0000 0.44140  0.95120  0.95120  Biso   1.000  C
  C28      1.0000 0.65550  0.95830  0.95830  Biso   1.000  C
  C29      1.0000 0.95120  0.95120  0.44140  Biso   1.000  C
  C30      1.0000 0.95830  0.95830  0.65550  Biso   1.000  C
  C31      1.0000 0.95120  0.44140  0.95120  Biso   1.000  C
  C32      1.0000 0.95830  0.65550  0.95830  Biso   1.000  C
  C33      1.0000 0.02770  0.40510  0.53870  Biso   1.000  C
  C34      1.0000 0.53870  0.02770  0.40510  Biso   1.000  C
  C35      1.0000 0.40510  0.53870  0.02770  Biso   1.000  C
  C36      1.0000 0.59490  0.97230  0.46130  Biso   1.000  C
  C37      1.0000 0.97230  0.46130  0.59490  Biso   1.000  C
  C38      1.0000 0.46130  0.59490  0.97230  Biso   1.000  C
  C39      1.0000 0.97230  0.59490  0.46130  Biso   1.000  C
  C40      1.0000 0.46130  0.97230  0.59490  Biso   1.000  C
  C41      1.0000 0.59490  0.46130  0.97230  Biso   1.000  C
  C42      1.0000 0.40510  0.02770  0.53870  Biso   1.000  C
  C43      1.0000 0.02770  0.53870  0.40510  Biso   1.000  C
  C44      1.0000 0.53870  0.40510  0.02770  Biso   1.000  C
  C45      1.0000 0.11130  0.39010  0.11130  Biso   1.000  C
  C46      1.0000 0.05390  0.44400  0.05390  Biso   1.000  C
  C47      1.0000 0.02940  0.53530  0.02940  Biso   1.000  C
  C48      1.0000 0.02520  0.40600  0.02520  Biso   1.000  C
  C49      1.0000 0.11130  0.11130  0.39010  Biso   1.000  C
  C50      1.0000 0.05390  0.05390  0.44400  Biso   1.000  C
  C51      1.0000 0.02940  0.02940  0.53530  Biso   1.000  C
  C52      1.0000 0.02520  0.02520  0.40600  Biso   1.000  C
  C53      1.0000 0.39010  0.11130  0.11130  Biso   1.000  C
  C54      1.0000 0.44400  0.05390  0.05390  Biso   1.000  C
  C55      1.0000 0.53530  0.02940  0.02940  Biso   1.000  C
  C56      1.0000 0.40600  0.02520  0.02520  Biso   1.000  C
  C57      1.0000 0.60990  0.88870  0.88870  Biso   1.000  C
  C58      1.0000 0.55600  0.94610  0.94610  Biso   1.000  C
  C59      1.0000 0.46470  0.97060  0.97060  Biso   1.000  C
  C60      1.0000 0.59400  0.97480  0.97480  Biso   1.000  C
  C61      1.0000 0.88870  0.88870  0.60990  Biso   1.000  C
  C62      1.0000 0.94610  0.94610  0.55600  Biso   1.000  C
  C63      1.0000 0.97060  0.97060  0.46470  Biso   1.000  C
  C64      1.0000 0.97480  0.97480  0.59400  Biso   1.000  C
  C65      1.0000 0.88870  0.60990  0.88870  Biso   1.000  C
  C66      1.0000 0.94610  0.55600  0.94610  Biso   1.000  C
  C67      1.0000 0.97060  0.46470  0.97060  Biso   1.000  C
  C68      1.0000 0.97480  0.59400  0.97480  Biso   1.000  C
  C69      1.0000 0.11170  0.38940  0.38940  Biso   1.000  C
  C70      1.0000 0.05990  0.44245  0.44245  Biso   1.000  C
  C71      1.0000 0.38940  0.11170  0.38940  Biso   1.000  C
  C72      1.0000 0.44245  0.05990  0.44245  Biso   1.000  C
  C73      1.0000 0.38940  0.38940  0.11170  Biso   1.000  C
  C74      1.0000 0.44245  0.44245  0.05990  Biso   1.000  C
  C75      1.0000 0.61060  0.88830  0.61060  Biso   1.000  C
  C76      1.0000 0.55755  0.94010  0.55755  Biso   1.000  C
  C77      1.0000 0.88830  0.61060  0.61060  Biso   1.000  C
  C78      1.0000 0.94010  0.55755  0.55755  Biso   1.000  C
  C79      1.0000 0.61060  0.61060  0.88830  Biso   1.000  C
  C80      1.0000 0.55755  0.55755  0.94010  Biso   1.000  C
  C81      1.0000 0.13529  0.42759  0.30119  Biso   1.000  C
  C82      1.0000 0.30119  0.13529  0.42759  Biso   1.000  C
  C83      1.0000 0.42759  0.30119  0.13529  Biso   1.000  C
  C84      1.0000 0.57241  0.86471  0.69881  Biso   1.000  C
  C85      1.0000 0.86471  0.69881  0.57241  Biso   1.000  C
  C86      1.0000 0.69881  0.57241  0.86471  Biso   1.000  C
  C87      1.0000 0.86471  0.57241  0.69881  Biso   1.000  C
  C88      1.0000 0.69881  0.86471  0.57241  Biso   1.000  C
  C89      1.0000 0.57241  0.69881  0.86471  Biso   1.000  C
  C90      1.0000 0.42759  0.13529  0.30119  Biso   1.000  C
  C91      1.0000 0.13529  0.30119  0.42759  Biso   1.000  C
  C92      1.0000 0.30119  0.42759  0.13529  Biso   1.000  C
  C93      1.0000 0.25153  0.25153  0.25153  Biso   1.000  C
  C94      1.0000 0.74847  0.74847  0.74847  Biso   1.000  C
  C95      1.0000 0.13410  0.30220  0.13410  Biso   1.000  C
  C96      1.0000 0.13380  0.42820  0.13380  Biso   1.000  C
  C97      1.0000 0.13410  0.13410  0.30220  Biso   1.000  C
  C98      1.0000 0.13380  0.13380  0.42820  Biso   1.000  C
  C99      1.0000 0.30220  0.13410  0.13410  Biso   1.000  C
  C100     1.0000 0.42820  0.13380  0.13380  Biso   1.000  C
  C101     1.0000 0.69780  0.86590  0.86590  Biso   1.000  C
  C102     1.0000 0.57180  0.86620  0.86620  Biso   1.000  C
  C103     1.0000 0.86590  0.86590  0.69780  Biso   1.000  C
  C104     1.0000 0.86620  0.86620  0.57180  Biso   1.000  C
  C105     1.0000 0.86590  0.69780  0.86590  Biso   1.000  C
  C106     1.0000 0.86620  0.57180  0.86620  Biso   1.000  C
  O1       1.0000 0.00000  1.00000  0.00000  Biso   1.000  O
  O2       1.0000 0.00101  0.00043  0.17142  Biso   1.000  O
  O3       1.0000 0.82603  0.00043  0.17142  Biso   1.000  O
  O4       1.0000 0.99986  0.82829  0.17142  Biso   1.000  O
  O5       1.0000 0.42206  0.41000  0.74927  Biso   1.000  O
  O6       1.0000 0.42105  0.40957  0.57785  Biso   1.000  O
  O7       1.0000 0.42221  0.58171  0.57785  Biso   1.000  O
  O8       1.0000 0.59604  0.40957  0.57785  Biso   1.000  O
  O9       1.0000 0.16887  0.16239  0.80397  Biso   1.000  O
  O10      1.0000 0.16430  0.16045  0.03230  Biso   1.000  O
  O11      1.0000 0.64674  0.86113  0.33113  Biso   1.000  O
  O12      1.0000 0.86422  0.63602  0.33113  Biso   1.000  O
  O13      1.0000 0.16750  0.63527  0.03230  Biso   1.000  O
  O14      1.0000 0.16685  0.86232  0.80397  Biso   1.000  O
  O15      1.0000 0.64875  0.16120  0.33113  Biso   1.000  O
  O16      1.0000 0.86103  0.16120  0.33113  Biso   1.000  O
  O17      1.0000 0.16405  0.86113  0.33113  Biso   1.000  O
  O18      1.0000 0.16926  0.63602  0.33113  Biso   1.000  O
  O19      1.0000 0.64699  0.16045  0.03230  Biso   1.000  O
  O20      1.0000 0.86382  0.16239  0.80397  Biso   1.000  O
  O21      1.0000 0.25320  0.24761  0.94529  Biso   1.000  O
  O22      1.0000 0.25776  0.24955  0.71696  Biso   1.000  O
  O23      1.0000 0.55784  0.77398  0.41814  Biso   1.000  O
  O24      1.0000 0.77533  0.54887  0.41814  Biso   1.000  O
  O25      1.0000 0.77508  0.24955  0.71696  Biso   1.000  O
  O26      1.0000 0.55824  0.24761  0.94529  Biso   1.000  O
  O27      1.0000 0.25280  0.77398  0.41814  Biso   1.000  O
  O28      1.0000 0.25801  0.54887  0.41814  Biso   1.000  O
  O29      1.0000 0.56104  0.24880  0.41814  Biso   1.000  O
  O30      1.0000 0.77331  0.24880  0.41814  Biso   1.000  O
  O31      1.0000 0.25457  0.77473  0.71696  Biso   1.000  O
  O32      1.0000 0.25521  0.54768  0.94529  Biso   1.000  O
  O33      1.0000 0.18687  0.17990  0.83038  Biso   1.000  O
  O34      1.0000 0.18179  0.17775  0.97115  Biso   1.000  O
  O35      1.0000 0.67338  0.79977  0.34850  Biso   1.000  O
  O36      1.0000 0.80208  0.66258  0.34850  Biso   1.000  O
  O37      1.0000 0.18505  0.66163  0.97115  Biso   1.000  O
  O38      1.0000 0.18432  0.80098  0.83038  Biso   1.000  O
  O39      1.0000 0.67593  0.17869  0.34850  Biso   1.000  O
  O40      1.0000 0.79882  0.17869  0.34850  Biso   1.000  O
  O41      1.0000 0.18147  0.79977  0.34850  Biso   1.000  O
  O42      1.0000 0.18728  0.66258  0.34850  Biso   1.000  O
  O43      1.0000 0.67370  0.17775  0.97115  Biso   1.000  O
  O44      1.0000 0.80167  0.17990  0.83038  Biso   1.000  O
  O45      1.0000 0.23519  0.23010  0.91889  Biso   1.000  O
  O46      1.0000 0.24027  0.23225  0.77812  Biso   1.000  O
  O47      1.0000 0.61999  0.74742  0.40077  Biso   1.000  O
  O48      1.0000 0.74868  0.61023  0.40077  Biso   1.000  O
  O49      1.0000 0.74836  0.23225  0.77812  Biso   1.000  O
  O50      1.0000 0.62039  0.23010  0.91889  Biso   1.000  O
  O51      1.0000 0.23478  0.74742  0.40077  Biso   1.000  O
  O52      1.0000 0.24059  0.61023  0.40077  Biso   1.000  O
  O53      1.0000 0.62324  0.23131  0.40077  Biso   1.000  O
  O54      1.0000 0.74613  0.23131  0.40077  Biso   1.000  O
  O55      1.0000 0.23702  0.74837  0.77812  Biso   1.000  O
  O56      1.0000 0.23774  0.60902  0.91889  Biso   1.000  O
  O57      1.0000 0.09607  0.09391  0.99218  Biso   1.000  O
  O58      1.0000 0.15402  0.15072  0.93545  Biso   1.000  O
  O59      1.0000 0.81738  0.82067  0.26496  Biso   1.000  O
  O60      1.0000 0.75943  0.76385  0.32168  Biso   1.000  O
  O61      1.0000 0.09422  0.81999  0.99218  Biso   1.000  O
  O62      1.0000 0.15141  0.76288  0.93545  Biso   1.000  O
  O63      1.0000 0.81922  0.09459  0.26496  Biso   1.000  O
  O64      1.0000 0.76204  0.15169  0.32168  Biso   1.000  O
  O65      1.0000 0.09584  0.82067  0.26496  Biso   1.000  O
  O66      1.0000 0.15369  0.76385  0.32168  Biso   1.000  O
  O67      1.0000 0.81761  0.09391  0.99218  Biso   1.000  O
  O68      1.0000 0.75975  0.15072  0.93545  Biso   1.000  O
  O69      1.0000 0.32599  0.31609  0.75709  Biso   1.000  O
  O70      1.0000 0.26804  0.25928  0.81382  Biso   1.000  O
  O71      1.0000 0.60468  0.58933  0.48431  Biso   1.000  O
  O72      1.0000 0.66263  0.64615  0.42759  Biso   1.000  O
  O73      1.0000 0.60445  0.31609  0.75709  Biso   1.000  O
  O74      1.0000 0.66231  0.25928  0.81382  Biso   1.000  O
  O75      1.0000 0.32622  0.58933  0.48431  Biso   1.000  O
  O76      1.0000 0.26837  0.64615  0.42759  Biso   1.000  O
  O77      1.0000 0.60284  0.31541  0.48431  Biso   1.000  O
  O78      1.0000 0.66002  0.25831  0.42759  Biso   1.000  O
  O79      1.0000 0.32784  0.59001  0.75709  Biso   1.000  O
  O80      1.0000 0.27065  0.64712  0.81382  Biso   1.000  O
  O81      1.0000 0.95672  0.95729  0.12857  Biso   1.000  O
  O82      1.0000 0.46534  0.45271  0.62070  Biso   1.000  O
  O83      1.0000 0.07305  0.07153  0.95446  Biso   1.000  O
  O84      1.0000 0.07376  0.07183  0.07426  Biso   1.000  O
  O85      1.0000 0.77930  0.90305  0.24277  Biso   1.000  O
  O86      1.0000 0.90079  0.78274  0.24277  Biso   1.000  O
  O87      1.0000 0.07181  0.78232  0.07426  Biso   1.000  O
  O88      1.0000 0.07191  0.90232  0.95446  Biso   1.000  O
  O89      1.0000 0.78044  0.07226  0.24277  Biso   1.000  O
  O90      1.0000 0.90274  0.07226  0.24277  Biso   1.000  O
  O91      1.0000 0.07361  0.90305  0.24277  Biso   1.000  O
  O92      1.0000 0.07281  0.78274  0.24277  Biso   1.000  O
  O93      1.0000 0.77944  0.07183  0.07426  Biso   1.000  O
  O94      1.0000 0.90103  0.07153  0.95446  Biso   1.000  O
  O95      1.0000 0.34901  0.33847  0.79481  Biso   1.000  O
  O96      1.0000 0.34831  0.33817  0.67501  Biso   1.000  O
  O97      1.0000 0.52127  0.62726  0.50650  Biso   1.000  O
  O98      1.0000 0.64276  0.50695  0.50650  Biso   1.000  O
  O99      1.0000 0.64262  0.33817  0.67501  Biso   1.000  O
  O100     1.0000 0.52103  0.33847  0.79481  Biso   1.000  O
  O101     1.0000 0.34926  0.62726  0.50650  Biso   1.000  O
  O102     1.0000 0.34845  0.50695  0.50650  Biso   1.000  O
  O103     1.0000 0.51932  0.33774  0.50650  Biso   1.000  O
  O104     1.0000 0.64162  0.33774  0.50650  Biso   1.000  O
  O105     1.0000 0.35025  0.62768  0.67501  Biso   1.000  O
  O106     1.0000 0.35015  0.50768  0.79481  Biso   1.000  O
