data_image0
_cell_length_a       18.3149
_cell_length_b       18.3149
_cell_length_c       18.3149
_cell_angle_alpha    60.3295
_cell_angle_beta     60.3295
_cell_angle_gamma    60.3295

_symmetry_space_group_name_H-M    "P 1"
_symmetry_int_tables_number       1

loop_
  _symmetry_equiv_pos_as_xyz
  'x, y, z'

loop_
  _atom_site_label
  _atom_site_occupancy
  _atom_site_fract_x
  _atom_site_fract_y
  _atom_site_fract_z
  _atom_site_thermal_displace_type
  _atom_site_B_iso_or_equiv
  _atom_site_type_symbol
  Zn1      1.0000 0.20609  0.20609  0.20609  Biso   1.000  Zn
  Zn2      1.0000 0.79391  0.79391  0.79391  Biso   1.000  Zn
  Zn3      1.0000 0.20677  0.37952  0.20677  Biso   1.000  Zn
  Zn4      1.0000 0.20677  0.20677  0.37952  Biso   1.000  Zn
  Zn5      1.0000 0.37952  0.20677  0.20677  Biso   1.000  Zn
  Zn6      1.0000 0.62048  0.79323  0.79323  Biso   1.000  Zn
  Zn7      1.0000 0.79323  0.79323  0.62048  Biso   1.000  Zn
  Zn8      1.0000 0.79323  0.62048  0.79323  Biso   1.000  Zn
  H1       1.0000 0.04260  0.34350  0.56530  Biso   1.000  H
  H2       1.0000 0.56530  0.04260  0.34350  Biso   1.000  H
  H3       1.0000 0.34350  0.56530  0.04260  Biso   1.000  H
  H4       1.0000 0.65650  0.95740  0.43470  Biso   1.000  H
  H5       1.0000 0.95740  0.43470  0.65650  Biso   1.000  H
  H6       1.0000 0.43470  0.65650  0.95740  Biso   1.000  H
  H7       1.0000 0.95740  0.65650  0.43470  Biso   1.000  H
  H8       1.0000 0.43470  0.95740  0.65650  Biso   1.000  H
  H9       1.0000 0.65650  0.43470  0.95740  Biso   1.000  H
  H10      1.0000 0.34350  0.04260  0.56530  Biso   1.000  H
  H11      1.0000 0.04260  0.56530  0.34350  Biso   1.000  H
  H12      1.0000 0.56530  0.34350  0.04260  Biso   1.000  H
  H13      1.0000 0.04880  0.55860  0.04880  Biso   1.000  H
  H14      1.0000 0.04170  0.34450  0.04170  Biso   1.000  H
  H15      1.0000 0.04880  0.04880  0.55860  Biso   1.000  H
  H16      1.0000 0.04170  0.04170  0.34450  Biso   1.000  H
  H17      1.0000 0.55860  0.04880  0.04880  Biso   1.000  H
  H18      1.0000 0.34450  0.04170  0.04170  Biso   1.000  H
  H19      1.0000 0.44140  0.95120  0.95120  Biso   1.000  H
  H20      1.0000 0.65550  0.95830  0.95830  Biso   1.000  H
  H21      1.0000 0.95120  0.95120  0.44140  Biso   1.000  H
  H22      1.0000 0.95830  0.95830  0.65550  Biso   1.000  H
  H23      1.0000 0.95120  0.44140  0.95120  Biso   1.000  H
  H24      1.0000 0.95830  0.65550  0.95830  Biso   1.000  H
  C1       1.0000 0.02770  0.40510  0.53870  Biso   1.000  C
  C2       1.0000 0.53870  0.02770  0.40510  Biso   1.000  C
  C3       1.0000 0.40510  0.53870  0.02770  Biso   1.000  C
  C4       1.0000 0.59490  0.97230  0.46130  Biso   1.000  C
  C5       1.0000 0.97230  0.46130  0.59490  Biso   1.000  C
  C6       1.0000 0.46130  0.59490  0.97230  Biso   1.000  C
  C7       1.0000 0.97230  0.59490  0.46130  Biso   1.000  C
  C8       1.0000 0.46130  0.97230  0.59490  Biso   1.000  C
  C9       1.0000 0.59490  0.46130  0.97230  Biso   1.000  C
  C10      1.0000 0.40510  0.02770  0.53870  Biso   1.000  C
  C11      1.0000 0.02770  0.53870  0.40510  Biso   1.000  C
  C12      1.0000 0.53870  0.40510  0.02770  Biso   1.000  C
  C13      1.0000 0.11130  0.39010  0.11130  Biso   1.000  C
  C14      1.0000 0.05390  0.44400  0.05390  Biso   1.000  C
  C15      1.0000 0.02940  0.53530  0.02940  Biso   1.000  C
  C16      1.0000 0.02520  0.40600  0.02520  Biso   1.000  C
  C17      1.0000 0.11130  0.11130  0.39010  Biso   1.000  C
  C18      1.0000 0.05390  0.05390  0.44400  Biso   1.000  C
  C19      1.0000 0.02940  0.02940  0.53530  Biso   1.000  C
  C20      1.0000 0.02520  0.02520  0.40600  Biso   1.000  C
  C21      1.0000 0.39010  0.11130  0.11130  Biso   1.000  C
  C22      1.0000 0.44400  0.05390  0.05390  Biso   1.000  C
  C23      1.0000 0.53530  0.02940  0.02940  Biso   1.000  C
  C24      1.0000 0.40600  0.02520  0.02520  Biso   1.000  C
  C25      1.0000 0.60990  0.88870  0.88870  Biso   1.000  C
  C26      1.0000 0.55600  0.94610  0.94610  Biso   1.000  C
  C27      1.0000 0.46470  0.97060  0.97060  Biso   1.000  C
  C28      1.0000 0.59400  0.97480  0.97480  Biso   1.000  C
  C29      1.0000 0.88870  0.88870  0.60990  Biso   1.000  C
  C30      1.0000 0.94610  0.94610  0.55600  Biso   1.000  C
  C31      1.0000 0.97060  0.97060  0.46470  Biso   1.000  C
  C32      1.0000 0.97480  0.97480  0.59400  Biso   1.000  C
  C33      1.0000 0.88870  0.60990  0.88870  Biso   1.000  C
  C34      1.0000 0.94610  0.55600  0.94610  Biso   1.000  C
  C35      1.0000 0.97060  0.46470  0.97060  Biso   1.000  C
  C36      1.0000 0.97480  0.59400  0.97480  Biso   1.000  C
  C37      1.0000 0.11170  0.38940  0.38940  Biso   1.000  C
  C38      1.0000 0.05990  0.44245  0.44245  Biso   1.000  C
  C39      1.0000 0.38940  0.11170  0.38940  Biso   1.000  C
  C40      1.0000 0.44245  0.05990  0.44245  Biso   1.000  C
  C41      1.0000 0.38940  0.38940  0.11170  Biso   1.000  C
  C42      1.0000 0.44245  0.44245  0.05990  Biso   1.000  C
  C43      1.0000 0.61060  0.88830  0.61060  Biso   1.000  C
  C44      1.0000 0.55755  0.94010  0.55755  Biso   1.000  C
  C45      1.0000 0.88830  0.61060  0.61060  Biso   1.000  C
  C46      1.0000 0.94010  0.55755  0.55755  Biso   1.000  C
  C47      1.0000 0.61060  0.61060  0.88830  Biso   1.000  C
  C48      1.0000 0.55755  0.55755  0.94010  Biso   1.000  C
  O1       1.0000 0.13529  0.42759  0.30119  Biso   1.000  O
  O2       1.0000 0.30119  0.13529  0.42759  Biso   1.000  O
  O3       1.0000 0.42759  0.30119  0.13529  Biso   1.000  O
  O4       1.0000 0.57241  0.86471  0.69881  Biso   1.000  O
  O5       1.0000 0.86471  0.69881  0.57241  Biso   1.000  O
  O6       1.0000 0.69881  0.57241  0.86471  Biso   1.000  O
  O7       1.0000 0.86471  0.57241  0.69881  Biso   1.000  O
  O8       1.0000 0.69881  0.86471  0.57241  Biso   1.000  O
  O9       1.0000 0.57241  0.69881  0.86471  Biso   1.000  O
  O10      1.0000 0.42759  0.13529  0.30119  Biso   1.000  O
  O11      1.0000 0.13529  0.30119  0.42759  Biso   1.000  O
  O12      1.0000 0.30119  0.42759  0.13529  Biso   1.000  O
  O13      1.0000 0.25153  0.25153  0.25153  Biso   1.000  O
  O14      1.0000 0.74847  0.74847  0.74847  Biso   1.000  O
  O15      1.0000 0.13410  0.30220  0.13410  Biso   1.000  O
  O16      1.0000 0.13380  0.42820  0.13380  Biso   1.000  O
  O17      1.0000 0.13410  0.13410  0.30220  Biso   1.000  O
  O18      1.0000 0.13380  0.13380  0.42820  Biso   1.000  O
  O19      1.0000 0.30220  0.13410  0.13410  Biso   1.000  O
  O20      1.0000 0.42820  0.13380  0.13380  Biso   1.000  O
  O21      1.0000 0.69780  0.86590  0.86590  Biso   1.000  O
  O22      1.0000 0.57180  0.86620  0.86620  Biso   1.000  O
  O23      1.0000 0.86590  0.86590  0.69780  Biso   1.000  O
  O24      1.0000 0.86620  0.86620  0.57180  Biso   1.000  O
  O25      1.0000 0.86590  0.69780  0.86590  Biso   1.000  O
  O26      1.0000 0.86620  0.57180  0.86620  Biso   1.000  O
  Zn9      1.0000 1.00000  0.00000  0.00000  Biso   1.000  Zn
  Zn10     1.0000 0.00101  0.00043  0.17135  Biso   1.000  Zn
  Zn11     1.0000 0.82610  0.00043  0.17135  Biso   1.000  Zn
  Zn12     1.0000 0.99986  0.82837  0.17135  Biso   1.000  Zn
  Zn13     1.0000 0.42158  0.40951  0.74864  Biso   1.000  Zn
  Zn14     1.0000 0.42056  0.40908  0.57729  Biso   1.000  Zn
  Zn15     1.0000 0.42172  0.58114  0.57729  Biso   1.000  Zn
  Zn16     1.0000 0.59548  0.40908  0.57729  Biso   1.000  Zn
  H25      1.0000 0.16887  0.16239  0.80340  Biso   1.000  H
  H26      1.0000 0.16431  0.16045  0.03176  Biso   1.000  H
  H27      1.0000 0.64623  0.86066  0.33106  Biso   1.000  H
  H28      1.0000 0.86374  0.63552  0.33106  Biso   1.000  H
  H29      1.0000 0.16750  0.63477  0.03176  Biso   1.000  H
  H30      1.0000 0.16685  0.86184  0.80340  Biso   1.000  H
  H31      1.0000 0.64826  0.16120  0.33106  Biso   1.000  H
  H32      1.0000 0.86055  0.16120  0.33106  Biso   1.000  H
  H33      1.0000 0.16406  0.86066  0.33106  Biso   1.000  H
  H34      1.0000 0.16927  0.63552  0.33106  Biso   1.000  H
  H35      1.0000 0.64648  0.16045  0.03176  Biso   1.000  H
  H36      1.0000 0.86335  0.16239  0.80340  Biso   1.000  H
  H37      1.0000 0.25271  0.24712  0.94523  Biso   1.000  H
  H38      1.0000 0.25727  0.24906  0.71688  Biso   1.000  H
  H39      1.0000 0.55783  0.77399  0.41758  Biso   1.000  H
  H40      1.0000 0.77535  0.54885  0.41758  Biso   1.000  H
  H41      1.0000 0.77509  0.24906  0.71688  Biso   1.000  H
  H42      1.0000 0.55823  0.24712  0.94523  Biso   1.000  H
  H43      1.0000 0.25231  0.77399  0.41758  Biso   1.000  H
  H44      1.0000 0.25752  0.54885  0.41758  Biso   1.000  H
  H45      1.0000 0.56103  0.24831  0.41758  Biso   1.000  H
  H46      1.0000 0.77332  0.24831  0.41758  Biso   1.000  H
  H47      1.0000 0.25408  0.77474  0.71688  Biso   1.000  H
  H48      1.0000 0.25473  0.54767  0.94523  Biso   1.000  H
  C49      1.0000 0.18681  0.17983  0.82976  Biso   1.000  C
  C50      1.0000 0.18173  0.17768  0.97080  Biso   1.000  C
  C51      1.0000 0.67282  0.79949  0.34836  Biso   1.000  C
  C52      1.0000 0.80179  0.66202  0.34836  Biso   1.000  C
  C53      1.0000 0.18498  0.66108  0.97080  Biso   1.000  C
  C54      1.0000 0.18426  0.80070  0.82976  Biso   1.000  C
  C55      1.0000 0.67537  0.17862  0.34836  Biso   1.000  C
  C56      1.0000 0.79854  0.17862  0.34836  Biso   1.000  C
  C57      1.0000 0.18141  0.79949  0.34836  Biso   1.000  C
  C58      1.0000 0.18722  0.66202  0.34836  Biso   1.000  C
  C59      1.0000 0.67314  0.17768  0.97080  Biso   1.000  C
  C60      1.0000 0.80139  0.17983  0.82976  Biso   1.000  C
  C61      1.0000 0.23477  0.22968  0.91888  Biso   1.000  C
  C62      1.0000 0.23985  0.23183  0.77784  Biso   1.000  C
  C63      1.0000 0.61978  0.74749  0.40028  Biso   1.000  C
  C64      1.0000 0.74876  0.61002  0.40028  Biso   1.000  C
  C65      1.0000 0.74844  0.23183  0.77784  Biso   1.000  C
  C66      1.0000 0.62019  0.22968  0.91888  Biso   1.000  C
  C67      1.0000 0.23436  0.74749  0.40028  Biso   1.000  C
  C68      1.0000 0.24017  0.61002  0.40028  Biso   1.000  C
  C69      1.0000 0.62304  0.23089  0.40028  Biso   1.000  C
  C70      1.0000 0.74620  0.23089  0.40028  Biso   1.000  C
  C71      1.0000 0.23660  0.74843  0.77784  Biso   1.000  C
  C72      1.0000 0.23732  0.60881  0.91888  Biso   1.000  C
  C73      1.0000 0.09598  0.09381  0.99223  Biso   1.000  C
  C74      1.0000 0.15394  0.15063  0.93550  Biso   1.000  C
  C75      1.0000 0.81752  0.82080  0.26479  Biso   1.000  C
  C76      1.0000 0.75956  0.76397  0.32152  Biso   1.000  C
  C77      1.0000 0.09414  0.82012  0.99223  Biso   1.000  C
  C78      1.0000 0.15133  0.76301  0.93550  Biso   1.000  C
  C79      1.0000 0.81936  0.09449  0.26479  Biso   1.000  C
  C80      1.0000 0.76217  0.15160  0.32152  Biso   1.000  C
  C81      1.0000 0.09575  0.82080  0.26479  Biso   1.000  C
  C82      1.0000 0.15361  0.76397  0.32152  Biso   1.000  C
  C83      1.0000 0.81775  0.09381  0.99223  Biso   1.000  C
  C84      1.0000 0.75989  0.15063  0.93550  Biso   1.000  C
  C85      1.0000 0.32560  0.31570  0.75641  Biso   1.000  C
  C86      1.0000 0.26764  0.25888  0.81314  Biso   1.000  C
  C87      1.0000 0.60406  0.58871  0.48385  Biso   1.000  C
  C88      1.0000 0.66202  0.64554  0.42712  Biso   1.000  C
  C89      1.0000 0.60383  0.31570  0.75641  Biso   1.000  C
  C90      1.0000 0.66169  0.25888  0.81314  Biso   1.000  C
  C91      1.0000 0.32583  0.58871  0.48385  Biso   1.000  C
  C92      1.0000 0.26797  0.64554  0.42712  Biso   1.000  C
  C93      1.0000 0.60221  0.31502  0.48385  Biso   1.000  C
  C94      1.0000 0.65941  0.25791  0.42712  Biso   1.000  C
  C95      1.0000 0.32744  0.58939  0.75641  Biso   1.000  C
  C96      1.0000 0.27025  0.64650  0.81314  Biso   1.000  C
  O27      1.0000 0.95675  0.95730  0.12851  Biso   1.000  O
  O28      1.0000 0.46483  0.45221  0.62013  Biso   1.000  O
  O29      1.0000 0.07297  0.07145  0.95470  Biso   1.000  O
  O30      1.0000 0.07368  0.07175  0.07411  Biso   1.000  O
  O31      1.0000 0.77963  0.90296  0.24261  Biso   1.000  O
  O32      1.0000 0.90072  0.78306  0.24261  Biso   1.000  O
  O33      1.0000 0.07173  0.78264  0.07411  Biso   1.000  O
  O34      1.0000 0.07183  0.90224  0.95470  Biso   1.000  O
  O35      1.0000 0.78077  0.07217  0.24261  Biso   1.000  O
  O36      1.0000 0.90266  0.07217  0.24261  Biso   1.000  O
  O37      1.0000 0.07354  0.90296  0.24261  Biso   1.000  O
  O38      1.0000 0.07273  0.78306  0.24261  Biso   1.000  O
  O39      1.0000 0.77977  0.07175  0.07411  Biso   1.000  O
  O40      1.0000 0.90096  0.07145  0.95470  Biso   1.000  O
  O41      1.0000 0.34861  0.33806  0.79394  Biso   1.000  O
  O42      1.0000 0.34790  0.33776  0.67453  Biso   1.000  O
  O43      1.0000 0.52086  0.62645  0.50602  Biso   1.000  O
  O44      1.0000 0.64195  0.50655  0.50602  Biso   1.000  O
  O45      1.0000 0.64180  0.33776  0.67453  Biso   1.000  O
  O46      1.0000 0.52062  0.33806  0.79394  Biso   1.000  O
  O47      1.0000 0.34885  0.62645  0.50602  Biso   1.000  O
  O48      1.0000 0.34804  0.50655  0.50602  Biso   1.000  O
  O49      1.0000 0.51892  0.33734  0.50602  Biso   1.000  O
  O50      1.0000 0.64081  0.33734  0.50602  Biso   1.000  O
  O51      1.0000 0.34985  0.62687  0.67453  Biso   1.000  O
  O52      1.0000 0.34975  0.50727  0.79394  Biso   1.000  O
