data_image0
_cell_length_a       18.3149
_cell_length_b       18.3149
_cell_length_c       18.3149
_cell_angle_alpha    60.3295
_cell_angle_beta     60.3295
_cell_angle_gamma    60.3295

_symmetry_space_group_name_H-M    "P 1"
_symmetry_int_tables_number       1

loop_
  _symmetry_equiv_pos_as_xyz
  'x, y, z'

loop_
  _atom_site_label
  _atom_site_occupancy
  _atom_site_fract_x
  _atom_site_fract_y
  _atom_site_fract_z
  _atom_site_thermal_displace_type
  _atom_site_B_iso_or_equiv
  _atom_site_type_symbol
  Zn1      1.0000 0.20609  0.20609  0.20609  Biso   1.000  Zn
  Zn2      1.0000 0.79391  0.79391  0.79391  Biso   1.000  Zn
  Zn3      1.0000 0.20677  0.37952  0.20677  Biso   1.000  Zn
  Zn4      1.0000 0.20677  0.20677  0.37952  Biso   1.000  Zn
  Zn5      1.0000 0.37952  0.20677  0.20677  Biso   1.000  Zn
  Zn6      1.0000 0.62048  0.79323  0.79323  Biso   1.000  Zn
  Zn7      1.0000 0.79323  0.79323  0.62048  Biso   1.000  Zn
  Zn8      1.0000 0.79323  0.62048  0.79323  Biso   1.000  Zn
  H1       1.0000 0.04260  0.34350  0.56530  Biso   1.000  H
  H2       1.0000 0.56530  0.04260  0.34350  Biso   1.000  H
  H3       1.0000 0.34350  0.56530  0.04260  Biso   1.000  H
  H4       1.0000 0.65650  0.95740  0.43470  Biso   1.000  H
  H5       1.0000 0.95740  0.43470  0.65650  Biso   1.000  H
  H6       1.0000 0.43470  0.65650  0.95740  Biso   1.000  H
  H7       1.0000 0.95740  0.65650  0.43470  Biso   1.000  H
  H8       1.0000 0.43470  0.95740  0.65650  Biso   1.000  H
  H9       1.0000 0.65650  0.43470  0.95740  Biso   1.000  H
  H10      1.0000 0.34350  0.04260  0.56530  Biso   1.000  H
  H11      1.0000 0.04260  0.56530  0.34350  Biso   1.000  H
  H12      1.0000 0.56530  0.34350  0.04260  Biso   1.000  H
  H13      1.0000 0.04880  0.55860  0.04880  Biso   1.000  H
  H14      1.0000 0.04170  0.34450  0.04170  Biso   1.000  H
  H15      1.0000 0.04880  0.04880  0.55860  Biso   1.000  H
  H16      1.0000 0.04170  0.04170  0.34450  Biso   1.000  H
  H17      1.0000 0.55860  0.04880  0.04880  Biso   1.000  H
  H18      1.0000 0.34450  0.04170  0.04170  Biso   1.000  H
  H19      1.0000 0.44140  0.95120  0.95120  Biso   1.000  H
  H20      1.0000 0.65550  0.95830  0.95830  Biso   1.000  H
  H21      1.0000 0.95120  0.95120  0.44140  Biso   1.000  H
  H22      1.0000 0.95830  0.95830  0.65550  Biso   1.000  H
  H23      1.0000 0.95120  0.44140  0.95120  Biso   1.000  H
  H24      1.0000 0.95830  0.65550  0.95830  Biso   1.000  H
  C1       1.0000 0.02770  0.40510  0.53870  Biso   1.000  C
  C2       1.0000 0.53870  0.02770  0.40510  Biso   1.000  C
  C3       1.0000 0.40510  0.53870  0.02770  Biso   1.000  C
  C4       1.0000 0.59490  0.97230  0.46130  Biso   1.000  C
  C5       1.0000 0.97230  0.46130  0.59490  Biso   1.000  C
  C6       1.0000 0.46130  0.59490  0.97230  Biso   1.000  C
  C7       1.0000 0.97230  0.59490  0.46130  Biso   1.000  C
  C8       1.0000 0.46130  0.97230  0.59490  Biso   1.000  C
  C9       1.0000 0.59490  0.46130  0.97230  Biso   1.000  C
  C10      1.0000 0.40510  0.02770  0.53870  Biso   1.000  C
  C11      1.0000 0.02770  0.53870  0.40510  Biso   1.000  C
  C12      1.0000 0.53870  0.40510  0.02770  Biso   1.000  C
  C13      1.0000 0.11130  0.39010  0.11130  Biso   1.000  C
  C14      1.0000 0.05390  0.44400  0.05390  Biso   1.000  C
  C15      1.0000 0.02940  0.53530  0.02940  Biso   1.000  C
  C16      1.0000 0.02520  0.40600  0.02520  Biso   1.000  C
  C17      1.0000 0.11130  0.11130  0.39010  Biso   1.000  C
  C18      1.0000 0.05390  0.05390  0.44400  Biso   1.000  C
  C19      1.0000 0.02940  0.02940  0.53530  Biso   1.000  C
  C20      1.0000 0.02520  0.02520  0.40600  Biso   1.000  C
  C21      1.0000 0.39010  0.11130  0.11130  Biso   1.000  C
  C22      1.0000 0.44400  0.05390  0.05390  Biso   1.000  C
  C23      1.0000 0.53530  0.02940  0.02940  Biso   1.000  C
  C24      1.0000 0.40600  0.02520  0.02520  Biso   1.000  C
  C25      1.0000 0.60990  0.88870  0.88870  Biso   1.000  C
  C26      1.0000 0.55600  0.94610  0.94610  Biso   1.000  C
  C27      1.0000 0.46470  0.97060  0.97060  Biso   1.000  C
  C28      1.0000 0.59400  0.97480  0.97480  Biso   1.000  C
  C29      1.0000 0.88870  0.88870  0.60990  Biso   1.000  C
  C30      1.0000 0.94610  0.94610  0.55600  Biso   1.000  C
  C31      1.0000 0.97060  0.97060  0.46470  Biso   1.000  C
  C32      1.0000 0.97480  0.97480  0.59400  Biso   1.000  C
  C33      1.0000 0.88870  0.60990  0.88870  Biso   1.000  C
  C34      1.0000 0.94610  0.55600  0.94610  Biso   1.000  C
  C35      1.0000 0.97060  0.46470  0.97060  Biso   1.000  C
  C36      1.0000 0.97480  0.59400  0.97480  Biso   1.000  C
  C37      1.0000 0.11170  0.38940  0.38940  Biso   1.000  C
  C38      1.0000 0.05990  0.44245  0.44245  Biso   1.000  C
  C39      1.0000 0.38940  0.11170  0.38940  Biso   1.000  C
  C40      1.0000 0.44245  0.05990  0.44245  Biso   1.000  C
  C41      1.0000 0.38940  0.38940  0.11170  Biso   1.000  C
  C42      1.0000 0.44245  0.44245  0.05990  Biso   1.000  C
  C43      1.0000 0.61060  0.88830  0.61060  Biso   1.000  C
  C44      1.0000 0.55755  0.94010  0.55755  Biso   1.000  C
  C45      1.0000 0.88830  0.61060  0.61060  Biso   1.000  C
  C46      1.0000 0.94010  0.55755  0.55755  Biso   1.000  C
  C47      1.0000 0.61060  0.61060  0.88830  Biso   1.000  C
  C48      1.0000 0.55755  0.55755  0.94010  Biso   1.000  C
  O1       1.0000 0.13529  0.42759  0.30119  Biso   1.000  O
  O2       1.0000 0.30119  0.13529  0.42759  Biso   1.000  O
  O3       1.0000 0.42759  0.30119  0.13529  Biso   1.000  O
  O4       1.0000 0.57241  0.86471  0.69881  Biso   1.000  O
  O5       1.0000 0.86471  0.69881  0.57241  Biso   1.000  O
  O6       1.0000 0.69881  0.57241  0.86471  Biso   1.000  O
  O7       1.0000 0.86471  0.57241  0.69881  Biso   1.000  O
  O8       1.0000 0.69881  0.86471  0.57241  Biso   1.000  O
  O9       1.0000 0.57241  0.69881  0.86471  Biso   1.000  O
  O10      1.0000 0.42759  0.13529  0.30119  Biso   1.000  O
  O11      1.0000 0.13529  0.30119  0.42759  Biso   1.000  O
  O12      1.0000 0.30119  0.42759  0.13529  Biso   1.000  O
  O13      1.0000 0.25153  0.25153  0.25153  Biso   1.000  O
  O14      1.0000 0.74847  0.74847  0.74847  Biso   1.000  O
  O15      1.0000 0.13410  0.30220  0.13410  Biso   1.000  O
  O16      1.0000 0.13380  0.42820  0.13380  Biso   1.000  O
  O17      1.0000 0.13410  0.13410  0.30220  Biso   1.000  O
  O18      1.0000 0.13380  0.13380  0.42820  Biso   1.000  O
  O19      1.0000 0.30220  0.13410  0.13410  Biso   1.000  O
  O20      1.0000 0.42820  0.13380  0.13380  Biso   1.000  O
  O21      1.0000 0.69780  0.86590  0.86590  Biso   1.000  O
  O22      1.0000 0.57180  0.86620  0.86620  Biso   1.000  O
  O23      1.0000 0.86590  0.86590  0.69780  Biso   1.000  O
  O24      1.0000 0.86620  0.86620  0.57180  Biso   1.000  O
  O25      1.0000 0.86590  0.69780  0.86590  Biso   1.000  O
  O26      1.0000 0.86620  0.57180  0.86620  Biso   1.000  O
  Zn9      1.0000 1.00000  0.00000  0.00000  Biso   1.000  Zn
  Zn10     1.0000 0.00101  0.00043  0.17106  Biso   1.000  Zn
  Zn11     1.0000 0.82639  0.00043  0.17106  Biso   1.000  Zn
  Zn12     1.0000 0.99986  0.82866  0.17106  Biso   1.000  Zn
  Zn13     1.0000 0.42035  0.40834  0.74689  Biso   1.000  Zn
  Zn14     1.0000 0.41934  0.40791  0.57583  Biso   1.000  Zn
  Zn15     1.0000 0.42050  0.57968  0.57583  Biso   1.000  Zn
  Zn16     1.0000 0.59396  0.40791  0.57583  Biso   1.000  Zn
  H25      1.0000 0.16767  0.16123  0.80266  Biso   1.000  H
  H26      1.0000 0.16311  0.15930  0.03190  Biso   1.000  H
  H27      1.0000 0.64575  0.86109  0.32961  Biso   1.000  H
  H28      1.0000 0.86416  0.63506  0.32961  Biso   1.000  H
  H29      1.0000 0.16631  0.63431  0.03190  Biso   1.000  H
  H30      1.0000 0.16566  0.86228  0.80266  Biso   1.000  H
  H31      1.0000 0.64776  0.16004  0.32961  Biso   1.000  H
  H32      1.0000 0.86097  0.16004  0.32961  Biso   1.000  H
  H33      1.0000 0.16286  0.86109  0.32961  Biso   1.000  H
  H34      1.0000 0.16807  0.63506  0.32961  Biso   1.000  H
  H35      1.0000 0.64600  0.15930  0.03190  Biso   1.000  H
  H36      1.0000 0.86377  0.16123  0.80266  Biso   1.000  H
  H37      1.0000 0.25268  0.24711  0.94423  Biso   1.000  H
  H38      1.0000 0.25724  0.24904  0.71499  Biso   1.000  H
  H39      1.0000 0.55619  0.77328  0.41728  Biso   1.000  H
  H40      1.0000 0.77460  0.54725  0.41728  Biso   1.000  H
  H41      1.0000 0.77435  0.24904  0.71499  Biso   1.000  H
  H42      1.0000 0.55659  0.24711  0.94423  Biso   1.000  H
  H43      1.0000 0.25228  0.77328  0.41728  Biso   1.000  H
  H44      1.0000 0.25749  0.54725  0.41728  Biso   1.000  H
  H45      1.0000 0.55938  0.24829  0.41728  Biso   1.000  H
  H46      1.0000 0.77259  0.24829  0.41728  Biso   1.000  H
  H47      1.0000 0.25404  0.77402  0.71499  Biso   1.000  H
  H48      1.0000 0.25469  0.54606  0.94423  Biso   1.000  H
  C49      1.0000 0.18566  0.17873  0.82894  Biso   1.000  C
  C50      1.0000 0.18059  0.17657  0.97091  Biso   1.000  C
  C51      1.0000 0.67227  0.79988  0.34697  Biso   1.000  C
  C52      1.0000 0.80218  0.66149  0.34697  Biso   1.000  C
  C53      1.0000 0.18384  0.66055  0.97091  Biso   1.000  C
  C54      1.0000 0.18312  0.80109  0.82894  Biso   1.000  C
  C55      1.0000 0.67481  0.17752  0.34697  Biso   1.000  C
  C56      1.0000 0.79892  0.17752  0.34697  Biso   1.000  C
  C57      1.0000 0.18027  0.79988  0.34697  Biso   1.000  C
  C58      1.0000 0.18607  0.66149  0.34697  Biso   1.000  C
  C59      1.0000 0.67259  0.17657  0.97091  Biso   1.000  C
  C60      1.0000 0.80178  0.17873  0.82894  Biso   1.000  C
  C61      1.0000 0.23469  0.22961  0.91795  Biso   1.000  C
  C62      1.0000 0.23976  0.23177  0.77599  Biso   1.000  C
  C63      1.0000 0.61817  0.74684  0.39992  Biso   1.000  C
  C64      1.0000 0.74808  0.60845  0.39992  Biso   1.000  C
  C65      1.0000 0.74776  0.23177  0.77599  Biso   1.000  C
  C66      1.0000 0.61858  0.22961  0.91795  Biso   1.000  C
  C67      1.0000 0.23428  0.74684  0.39992  Biso   1.000  C
  C68      1.0000 0.24008  0.60845  0.39992  Biso   1.000  C
  C69      1.0000 0.62143  0.23082  0.39992  Biso   1.000  C
  C70      1.0000 0.74554  0.23082  0.39992  Biso   1.000  C
  C71      1.0000 0.23651  0.74779  0.77599  Biso   1.000  C
  C72      1.0000 0.23723  0.60724  0.91795  Biso   1.000  C
  C73      1.0000 0.09567  0.09352  0.99238  Biso   1.000  C
  C74      1.0000 0.15318  0.14990  0.93609  Biso   1.000  C
  C75      1.0000 0.81796  0.82124  0.26421  Biso   1.000  C
  C76      1.0000 0.76046  0.76486  0.32049  Biso   1.000  C
  C77      1.0000 0.09383  0.82056  0.99238  Biso   1.000  C
  C78      1.0000 0.15058  0.76390  0.93609  Biso   1.000  C
  C79      1.0000 0.81980  0.09420  0.26421  Biso   1.000  C
  C80      1.0000 0.76305  0.15086  0.32049  Biso   1.000  C
  C81      1.0000 0.09544  0.82124  0.26421  Biso   1.000  C
  C82      1.0000 0.15285  0.76486  0.32049  Biso   1.000  C
  C83      1.0000 0.81819  0.09352  0.99238  Biso   1.000  C
  C84      1.0000 0.76078  0.14990  0.93609  Biso   1.000  C
  C85      1.0000 0.32468  0.31482  0.75451  Biso   1.000  C
  C86      1.0000 0.26718  0.25844  0.81080  Biso   1.000  C
  C87      1.0000 0.60239  0.58710  0.48269  Biso   1.000  C
  C88      1.0000 0.65990  0.64348  0.42640  Biso   1.000  C
  C89      1.0000 0.60216  0.31482  0.75451  Biso   1.000  C
  C90      1.0000 0.65957  0.25844  0.81080  Biso   1.000  C
  C91      1.0000 0.32491  0.58710  0.48269  Biso   1.000  C
  C92      1.0000 0.26750  0.64348  0.42640  Biso   1.000  C
  C93      1.0000 0.60055  0.31414  0.48269  Biso   1.000  C
  C94      1.0000 0.65730  0.25747  0.42640  Biso   1.000  C
  C95      1.0000 0.32652  0.58778  0.75451  Biso   1.000  C
  C96      1.0000 0.26977  0.64444  0.81080  Biso   1.000  C
  O27      1.0000 0.95682  0.95738  0.12829  Biso   1.000  O
  O28      1.0000 0.46354  0.45096  0.61860  Biso   1.000  O
  O29      1.0000 0.07279  0.07128  0.95489  Biso   1.000  O
  O30      1.0000 0.07349  0.07158  0.07398  Biso   1.000  O
  O31      1.0000 0.78011  0.90312  0.24215  Biso   1.000  O
  O32      1.0000 0.90087  0.78354  0.24215  Biso   1.000  O
  O33      1.0000 0.07155  0.78312  0.07398  Biso   1.000  O
  O34      1.0000 0.07165  0.90240  0.95489  Biso   1.000  O
  O35      1.0000 0.78125  0.07200  0.24215  Biso   1.000  O
  O36      1.0000 0.90281  0.07200  0.24215  Biso   1.000  O
  O37      1.0000 0.07335  0.90312  0.24215  Biso   1.000  O
  O38      1.0000 0.07255  0.78354  0.24215  Biso   1.000  O
  O39      1.0000 0.78025  0.07158  0.07398  Biso   1.000  O
  O40      1.0000 0.90111  0.07128  0.95489  Biso   1.000  O
  O41      1.0000 0.34756  0.33706  0.79200  Biso   1.000  O
  O42      1.0000 0.34686  0.33676  0.67291  Biso   1.000  O
  O43      1.0000 0.51948  0.62480  0.50474  Biso   1.000  O
  O44      1.0000 0.64024  0.50521  0.50474  Biso   1.000  O
  O45      1.0000 0.64010  0.33676  0.67291  Biso   1.000  O
  O46      1.0000 0.51924  0.33706  0.79200  Biso   1.000  O
  O47      1.0000 0.34781  0.62480  0.50474  Biso   1.000  O
  O48      1.0000 0.34700  0.50521  0.50474  Biso   1.000  O
  O49      1.0000 0.51754  0.33634  0.50474  Biso   1.000  O
  O50      1.0000 0.63910  0.33634  0.50474  Biso   1.000  O
  O51      1.0000 0.34880  0.62522  0.67291  Biso   1.000  O
  O52      1.0000 0.34870  0.50594  0.79200  Biso   1.000  O
