data_image0
_cell_length_a       18.3149
_cell_length_b       18.3149
_cell_length_c       18.3149
_cell_angle_alpha    60.3295
_cell_angle_beta     60.3295
_cell_angle_gamma    60.3295

_symmetry_space_group_name_H-M    "P 1"
_symmetry_int_tables_number       1

loop_
  _symmetry_equiv_pos_as_xyz
  'x, y, z'

loop_
  _atom_site_label
  _atom_site_occupancy
  _atom_site_fract_x
  _atom_site_fract_y
  _atom_site_fract_z
  _atom_site_thermal_displace_type
  _atom_site_B_iso_or_equiv
  _atom_site_type_symbol
  C1       1.0000 0.20609  0.20609  0.20609  Biso   1.000  C
  C2       1.0000 0.79391  0.79391  0.79391  Biso   1.000  C
  C3       1.0000 0.20677  0.37952  0.20677  Biso   1.000  C
  C4       1.0000 0.20677  0.20677  0.37952  Biso   1.000  C
  C5       1.0000 0.37952  0.20677  0.20677  Biso   1.000  C
  C6       1.0000 0.62048  0.79323  0.79323  Biso   1.000  C
  C7       1.0000 0.79323  0.79323  0.62048  Biso   1.000  C
  C8       1.0000 0.79323  0.62048  0.79323  Biso   1.000  C
  C9       1.0000 0.04260  0.34350  0.56530  Biso   1.000  C
  C10      1.0000 0.56530  0.04260  0.34350  Biso   1.000  C
  C11      1.0000 0.34350  0.56530  0.04260  Biso   1.000  C
  C12      1.0000 0.65650  0.95740  0.43470  Biso   1.000  C
  C13      1.0000 0.95740  0.43470  0.65650  Biso   1.000  C
  C14      1.0000 0.43470  0.65650  0.95740  Biso   1.000  C
  C15      1.0000 0.95740  0.65650  0.43470  Biso   1.000  C
  C16      1.0000 0.43470  0.95740  0.65650  Biso   1.000  C
  C17      1.0000 0.65650  0.43470  0.95740  Biso   1.000  C
  C18      1.0000 0.34350  0.04260  0.56530  Biso   1.000  C
  C19      1.0000 0.04260  0.56530  0.34350  Biso   1.000  C
  C20      1.0000 0.56530  0.34350  0.04260  Biso   1.000  C
  C21      1.0000 0.04880  0.55860  0.04880  Biso   1.000  C
  C22      1.0000 0.04170  0.34450  0.04170  Biso   1.000  C
  C23      1.0000 0.04880  0.04880  0.55860  Biso   1.000  C
  C24      1.0000 0.04170  0.04170  0.34450  Biso   1.000  C
  C25      1.0000 0.55860  0.04880  0.04880  Biso   1.000  C
  C26      1.0000 0.34450  0.04170  0.04170  Biso   1.000  C
  C27      1.0000 0.44140  0.95120  0.95120  Biso   1.000  C
  C28      1.0000 0.65550  0.95830  0.95830  Biso   1.000  C
  C29      1.0000 0.95120  0.95120  0.44140  Biso   1.000  C
  C30      1.0000 0.95830  0.95830  0.65550  Biso   1.000  C
  C31      1.0000 0.95120  0.44140  0.95120  Biso   1.000  C
  C32      1.0000 0.95830  0.65550  0.95830  Biso   1.000  C
  C33      1.0000 0.02770  0.40510  0.53870  Biso   1.000  C
  C34      1.0000 0.53870  0.02770  0.40510  Biso   1.000  C
  C35      1.0000 0.40510  0.53870  0.02770  Biso   1.000  C
  C36      1.0000 0.59490  0.97230  0.46130  Biso   1.000  C
  C37      1.0000 0.97230  0.46130  0.59490  Biso   1.000  C
  C38      1.0000 0.46130  0.59490  0.97230  Biso   1.000  C
  C39      1.0000 0.97230  0.59490  0.46130  Biso   1.000  C
  C40      1.0000 0.46130  0.97230  0.59490  Biso   1.000  C
  C41      1.0000 0.59490  0.46130  0.97230  Biso   1.000  C
  C42      1.0000 0.40510  0.02770  0.53870  Biso   1.000  C
  C43      1.0000 0.02770  0.53870  0.40510  Biso   1.000  C
  C44      1.0000 0.53870  0.40510  0.02770  Biso   1.000  C
  C45      1.0000 0.11130  0.39010  0.11130  Biso   1.000  C
  C46      1.0000 0.05390  0.44400  0.05390  Biso   1.000  C
  C47      1.0000 0.02940  0.53530  0.02940  Biso   1.000  C
  C48      1.0000 0.02520  0.40600  0.02520  Biso   1.000  C
  C49      1.0000 0.11130  0.11130  0.39010  Biso   1.000  C
  C50      1.0000 0.05390  0.05390  0.44400  Biso   1.000  C
  C51      1.0000 0.02940  0.02940  0.53530  Biso   1.000  C
  C52      1.0000 0.02520  0.02520  0.40600  Biso   1.000  C
  C53      1.0000 0.39010  0.11130  0.11130  Biso   1.000  C
  C54      1.0000 0.44400  0.05390  0.05390  Biso   1.000  C
  C55      1.0000 0.53530  0.02940  0.02940  Biso   1.000  C
  C56      1.0000 0.40600  0.02520  0.02520  Biso   1.000  C
  C57      1.0000 0.60990  0.88870  0.88870  Biso   1.000  C
  C58      1.0000 0.55600  0.94610  0.94610  Biso   1.000  C
  C59      1.0000 0.46470  0.97060  0.97060  Biso   1.000  C
  C60      1.0000 0.59400  0.97480  0.97480  Biso   1.000  C
  C61      1.0000 0.88870  0.88870  0.60990  Biso   1.000  C
  C62      1.0000 0.94610  0.94610  0.55600  Biso   1.000  C
  C63      1.0000 0.97060  0.97060  0.46470  Biso   1.000  C
  C64      1.0000 0.97480  0.97480  0.59400  Biso   1.000  C
  C65      1.0000 0.88870  0.60990  0.88870  Biso   1.000  C
  C66      1.0000 0.94610  0.55600  0.94610  Biso   1.000  C
  C67      1.0000 0.97060  0.46470  0.97060  Biso   1.000  C
  C68      1.0000 0.97480  0.59400  0.97480  Biso   1.000  C
  C69      1.0000 0.11170  0.38940  0.38940  Biso   1.000  C
  C70      1.0000 0.05990  0.44245  0.44245  Biso   1.000  C
  C71      1.0000 0.38940  0.11170  0.38940  Biso   1.000  C
  C72      1.0000 0.44245  0.05990  0.44245  Biso   1.000  C
  C73      1.0000 0.38940  0.38940  0.11170  Biso   1.000  C
  C74      1.0000 0.44245  0.44245  0.05990  Biso   1.000  C
  C75      1.0000 0.61060  0.88830  0.61060  Biso   1.000  C
  C76      1.0000 0.55755  0.94010  0.55755  Biso   1.000  C
  C77      1.0000 0.88830  0.61060  0.61060  Biso   1.000  C
  C78      1.0000 0.94010  0.55755  0.55755  Biso   1.000  C
  C79      1.0000 0.61060  0.61060  0.88830  Biso   1.000  C
  C80      1.0000 0.55755  0.55755  0.94010  Biso   1.000  C
  C81      1.0000 0.13529  0.42759  0.30119  Biso   1.000  C
  C82      1.0000 0.30119  0.13529  0.42759  Biso   1.000  C
  C83      1.0000 0.42759  0.30119  0.13529  Biso   1.000  C
  C84      1.0000 0.57241  0.86471  0.69881  Biso   1.000  C
  C85      1.0000 0.86471  0.69881  0.57241  Biso   1.000  C
  C86      1.0000 0.69881  0.57241  0.86471  Biso   1.000  C
  C87      1.0000 0.86471  0.57241  0.69881  Biso   1.000  C
  C88      1.0000 0.69881  0.86471  0.57241  Biso   1.000  C
  C89      1.0000 0.57241  0.69881  0.86471  Biso   1.000  C
  C90      1.0000 0.42759  0.13529  0.30119  Biso   1.000  C
  C91      1.0000 0.13529  0.30119  0.42759  Biso   1.000  C
  C92      1.0000 0.30119  0.42759  0.13529  Biso   1.000  C
  C93      1.0000 0.25153  0.25153  0.25153  Biso   1.000  C
  C94      1.0000 0.74847  0.74847  0.74847  Biso   1.000  C
  C95      1.0000 0.13410  0.30220  0.13410  Biso   1.000  C
  C96      1.0000 0.13380  0.42820  0.13380  Biso   1.000  C
  C97      1.0000 0.13410  0.13410  0.30220  Biso   1.000  C
  C98      1.0000 0.13380  0.13380  0.42820  Biso   1.000  C
  C99      1.0000 0.30220  0.13410  0.13410  Biso   1.000  C
  C100     1.0000 0.42820  0.13380  0.13380  Biso   1.000  C
  C101     1.0000 0.69780  0.86590  0.86590  Biso   1.000  C
  C102     1.0000 0.57180  0.86620  0.86620  Biso   1.000  C
  C103     1.0000 0.86590  0.86590  0.69780  Biso   1.000  C
  C104     1.0000 0.86620  0.86620  0.57180  Biso   1.000  C
  C105     1.0000 0.86590  0.69780  0.86590  Biso   1.000  C
  C106     1.0000 0.86620  0.57180  0.86620  Biso   1.000  C
  O1       1.0000 0.00000  1.00000  0.00000  Biso   1.000  O
  O2       1.0000 0.00101  0.00043  0.17123  Biso   1.000  O
  O3       1.0000 0.82622  0.00043  0.17123  Biso   1.000  O
  O4       1.0000 0.99986  0.82849  0.17123  Biso   1.000  O
  O5       1.0000 0.42077  0.40874  0.74763  Biso   1.000  O
  O6       1.0000 0.41975  0.40831  0.57640  Biso   1.000  O
  O7       1.0000 0.42091  0.58025  0.57640  Biso   1.000  O
  O8       1.0000 0.59454  0.40831  0.57640  Biso   1.000  O
  O9       1.0000 0.16834  0.16188  0.80276  Biso   1.000  O
  O10      1.0000 0.16378  0.15994  0.03164  Biso   1.000  O
  O11      1.0000 0.64569  0.86066  0.33043  Biso   1.000  O
  O12      1.0000 0.86373  0.63500  0.33043  Biso   1.000  O
  O13      1.0000 0.16697  0.63425  0.03164  Biso   1.000  O
  O14      1.0000 0.16632  0.86184  0.80276  Biso   1.000  O
  O15      1.0000 0.64771  0.16069  0.33043  Biso   1.000  O
  O16      1.0000 0.86054  0.16069  0.33043  Biso   1.000  O
  O17      1.0000 0.16353  0.86066  0.33043  Biso   1.000  O
  O18      1.0000 0.16874  0.63500  0.33043  Biso   1.000  O
  O19      1.0000 0.64594  0.15994  0.03164  Biso   1.000  O
  O20      1.0000 0.86333  0.16188  0.80276  Biso   1.000  O
  O21      1.0000 0.25243  0.24686  0.94486  Biso   1.000  O
  O22      1.0000 0.25699  0.24880  0.71599  Biso   1.000  O
  O23      1.0000 0.55704  0.77374  0.41720  Biso   1.000  O
  O24      1.0000 0.77508  0.54808  0.41720  Biso   1.000  O
  O25      1.0000 0.77483  0.24880  0.71599  Biso   1.000  O
  O26      1.0000 0.55744  0.24686  0.94486  Biso   1.000  O
  O27      1.0000 0.25203  0.77374  0.41720  Biso   1.000  O
  O28      1.0000 0.25724  0.54808  0.41720  Biso   1.000  O
  O29      1.0000 0.56023  0.24805  0.41720  Biso   1.000  O
  O30      1.0000 0.77306  0.24805  0.41720  Biso   1.000  O
  O31      1.0000 0.25380  0.77449  0.71599  Biso   1.000  O
  O32      1.0000 0.25445  0.54690  0.94486  Biso   1.000  O
  O33      1.0000 0.18635  0.17939  0.82917  Biso   1.000  O
  O34      1.0000 0.18127  0.17724  0.97048  Biso   1.000  O
  O35      1.0000 0.67233  0.79929  0.34780  Biso   1.000  O
  O36      1.0000 0.80158  0.66156  0.34780  Biso   1.000  O
  O37      1.0000 0.18452  0.66061  0.97048  Biso   1.000  O
  O38      1.0000 0.18380  0.80050  0.82917  Biso   1.000  O
  O39      1.0000 0.67488  0.17818  0.34780  Biso   1.000  O
  O40      1.0000 0.79833  0.17818  0.34780  Biso   1.000  O
  O41      1.0000 0.18095  0.79929  0.34780  Biso   1.000  O
  O42      1.0000 0.18675  0.66156  0.34780  Biso   1.000  O
  O43      1.0000 0.67265  0.17724  0.97048  Biso   1.000  O
  O44      1.0000 0.80118  0.17939  0.82917  Biso   1.000  O
  O45      1.0000 0.23442  0.22935  0.91846  Biso   1.000  O
  O46      1.0000 0.23950  0.23150  0.77715  Biso   1.000  O
  O47      1.0000 0.61918  0.74718  0.39983  Biso   1.000  O
  O48      1.0000 0.74843  0.60945  0.39983  Biso   1.000  O
  O49      1.0000 0.74812  0.23150  0.77715  Biso   1.000  O
  O50      1.0000 0.61959  0.22935  0.91846  Biso   1.000  O
  O51      1.0000 0.23401  0.74718  0.39983  Biso   1.000  O
  O52      1.0000 0.23982  0.60945  0.39983  Biso   1.000  O
  O53      1.0000 0.62244  0.23056  0.39983  Biso   1.000  O
  O54      1.0000 0.74588  0.23056  0.39983  Biso   1.000  O
  O55      1.0000 0.23625  0.74813  0.77715  Biso   1.000  O
  O56      1.0000 0.23697  0.60824  0.91846  Biso   1.000  O
  O57      1.0000 0.09566  0.09351  0.99247  Biso   1.000  O
  O58      1.0000 0.15393  0.15064  0.93544  Biso   1.000  O
  O59      1.0000 0.81788  0.82116  0.26437  Biso   1.000  O
  O60      1.0000 0.75962  0.76404  0.32140  Biso   1.000  O
  O61      1.0000 0.09383  0.82048  0.99247  Biso   1.000  O
  O62      1.0000 0.15132  0.76307  0.93544  Biso   1.000  O
  O63      1.0000 0.81972  0.09419  0.26437  Biso   1.000  O
  O64      1.0000 0.76222  0.15160  0.32140  Biso   1.000  O
  O65      1.0000 0.09544  0.82116  0.26437  Biso   1.000  O
  O66      1.0000 0.15360  0.76404  0.32140  Biso   1.000  O
  O67      1.0000 0.81811  0.09351  0.99247  Biso   1.000  O
  O68      1.0000 0.75994  0.15064  0.93544  Biso   1.000  O
  O69      1.0000 0.32510  0.31523  0.75516  Biso   1.000  O
  O70      1.0000 0.26684  0.25811  0.81219  Biso   1.000  O
  O71      1.0000 0.60289  0.58758  0.48326  Biso   1.000  O
  O72      1.0000 0.66115  0.64470  0.42623  Biso   1.000  O
  O73      1.0000 0.60266  0.31523  0.75516  Biso   1.000  O
  O74      1.0000 0.66083  0.25811  0.81219  Biso   1.000  O
  O75      1.0000 0.32533  0.58758  0.48326  Biso   1.000  O
  O76      1.0000 0.26716  0.64470  0.42623  Biso   1.000  O
  O77      1.0000 0.60105  0.31455  0.48326  Biso   1.000  O
  O78      1.0000 0.65854  0.25714  0.42623  Biso   1.000  O
  O79      1.0000 0.32694  0.58826  0.75516  Biso   1.000  O
  O80      1.0000 0.26945  0.64567  0.81219  Biso   1.000  O
  O81      1.0000 0.95677  0.95734  0.12842  Biso   1.000  O
  O82      1.0000 0.46399  0.45140  0.61921  Biso   1.000  O
  O83      1.0000 0.07284  0.07133  0.95518  Biso   1.000  O
  O84      1.0000 0.07354  0.07163  0.07376  Biso   1.000  O
  O85      1.0000 0.78023  0.90273  0.24237  Biso   1.000  O
  O86      1.0000 0.90048  0.78366  0.24237  Biso   1.000  O
  O87      1.0000 0.07160  0.78324  0.07376  Biso   1.000  O
  O88      1.0000 0.07170  0.90201  0.95518  Biso   1.000  O
  O89      1.0000 0.78137  0.07205  0.24237  Biso   1.000  O
  O90      1.0000 0.90242  0.07205  0.24237  Biso   1.000  O
  O91      1.0000 0.07340  0.90273  0.24237  Biso   1.000  O
  O92      1.0000 0.07260  0.78366  0.24237  Biso   1.000  O
  O93      1.0000 0.78038  0.07163  0.07376  Biso   1.000  O
  O94      1.0000 0.90072  0.07133  0.95518  Biso   1.000  O
  O95      1.0000 0.34793  0.33741  0.79245  Biso   1.000  O
  O96      1.0000 0.34723  0.33711  0.67387  Biso   1.000  O
  O97      1.0000 0.52029  0.62508  0.50526  Biso   1.000  O
  O98      1.0000 0.64053  0.50601  0.50526  Biso   1.000  O
  O99      1.0000 0.64039  0.33711  0.67387  Biso   1.000  O
  O100     1.0000 0.52005  0.33741  0.79245  Biso   1.000  O
  O101     1.0000 0.34817  0.62508  0.50526  Biso   1.000  O
  O102     1.0000 0.34737  0.50601  0.50526  Biso   1.000  O
  O103     1.0000 0.51835  0.33669  0.50526  Biso   1.000  O
  O104     1.0000 0.63939  0.33669  0.50526  Biso   1.000  O
  O105     1.0000 0.34917  0.62550  0.67387  Biso   1.000  O
  O106     1.0000 0.34907  0.50673  0.79245  Biso   1.000  O
