data_image0
_cell_length_a       18.3149
_cell_length_b       18.3149
_cell_length_c       18.3149
_cell_angle_alpha    60.3295
_cell_angle_beta     60.3295
_cell_angle_gamma    60.3295

_symmetry_space_group_name_H-M    "P 1"
_symmetry_int_tables_number       1

loop_
  _symmetry_equiv_pos_as_xyz
  'x, y, z'

loop_
  _atom_site_label
  _atom_site_occupancy
  _atom_site_fract_x
  _atom_site_fract_y
  _atom_site_fract_z
  _atom_site_thermal_displace_type
  _atom_site_B_iso_or_equiv
  _atom_site_type_symbol
  C1       1.0000 0.20609  0.20609  0.20609  Biso   1.000  C
  C2       1.0000 0.79391  0.79391  0.79391  Biso   1.000  C
  C3       1.0000 0.20677  0.37952  0.20677  Biso   1.000  C
  C4       1.0000 0.20677  0.20677  0.37952  Biso   1.000  C
  C5       1.0000 0.37952  0.20677  0.20677  Biso   1.000  C
  C6       1.0000 0.62048  0.79323  0.79323  Biso   1.000  C
  C7       1.0000 0.79323  0.79323  0.62048  Biso   1.000  C
  C8       1.0000 0.79323  0.62048  0.79323  Biso   1.000  C
  C9       1.0000 0.04260  0.34350  0.56530  Biso   1.000  C
  C10      1.0000 0.56530  0.04260  0.34350  Biso   1.000  C
  C11      1.0000 0.34350  0.56530  0.04260  Biso   1.000  C
  C12      1.0000 0.65650  0.95740  0.43470  Biso   1.000  C
  C13      1.0000 0.95740  0.43470  0.65650  Biso   1.000  C
  C14      1.0000 0.43470  0.65650  0.95740  Biso   1.000  C
  C15      1.0000 0.95740  0.65650  0.43470  Biso   1.000  C
  C16      1.0000 0.43470  0.95740  0.65650  Biso   1.000  C
  C17      1.0000 0.65650  0.43470  0.95740  Biso   1.000  C
  C18      1.0000 0.34350  0.04260  0.56530  Biso   1.000  C
  C19      1.0000 0.04260  0.56530  0.34350  Biso   1.000  C
  C20      1.0000 0.56530  0.34350  0.04260  Biso   1.000  C
  C21      1.0000 0.04880  0.55860  0.04880  Biso   1.000  C
  C22      1.0000 0.04170  0.34450  0.04170  Biso   1.000  C
  C23      1.0000 0.04880  0.04880  0.55860  Biso   1.000  C
  C24      1.0000 0.04170  0.04170  0.34450  Biso   1.000  C
  C25      1.0000 0.55860  0.04880  0.04880  Biso   1.000  C
  C26      1.0000 0.34450  0.04170  0.04170  Biso   1.000  C
  C27      1.0000 0.44140  0.95120  0.95120  Biso   1.000  C
  C28      1.0000 0.65550  0.95830  0.95830  Biso   1.000  C
  C29      1.0000 0.95120  0.95120  0.44140  Biso   1.000  C
  C30      1.0000 0.95830  0.95830  0.65550  Biso   1.000  C
  C31      1.0000 0.95120  0.44140  0.95120  Biso   1.000  C
  C32      1.0000 0.95830  0.65550  0.95830  Biso   1.000  C
  C33      1.0000 0.02770  0.40510  0.53870  Biso   1.000  C
  C34      1.0000 0.53870  0.02770  0.40510  Biso   1.000  C
  C35      1.0000 0.40510  0.53870  0.02770  Biso   1.000  C
  C36      1.0000 0.59490  0.97230  0.46130  Biso   1.000  C
  C37      1.0000 0.97230  0.46130  0.59490  Biso   1.000  C
  C38      1.0000 0.46130  0.59490  0.97230  Biso   1.000  C
  C39      1.0000 0.97230  0.59490  0.46130  Biso   1.000  C
  C40      1.0000 0.46130  0.97230  0.59490  Biso   1.000  C
  C41      1.0000 0.59490  0.46130  0.97230  Biso   1.000  C
  C42      1.0000 0.40510  0.02770  0.53870  Biso   1.000  C
  C43      1.0000 0.02770  0.53870  0.40510  Biso   1.000  C
  C44      1.0000 0.53870  0.40510  0.02770  Biso   1.000  C
  C45      1.0000 0.11130  0.39010  0.11130  Biso   1.000  C
  C46      1.0000 0.05390  0.44400  0.05390  Biso   1.000  C
  C47      1.0000 0.02940  0.53530  0.02940  Biso   1.000  C
  C48      1.0000 0.02520  0.40600  0.02520  Biso   1.000  C
  C49      1.0000 0.11130  0.11130  0.39010  Biso   1.000  C
  C50      1.0000 0.05390  0.05390  0.44400  Biso   1.000  C
  C51      1.0000 0.02940  0.02940  0.53530  Biso   1.000  C
  C52      1.0000 0.02520  0.02520  0.40600  Biso   1.000  C
  C53      1.0000 0.39010  0.11130  0.11130  Biso   1.000  C
  C54      1.0000 0.44400  0.05390  0.05390  Biso   1.000  C
  C55      1.0000 0.53530  0.02940  0.02940  Biso   1.000  C
  C56      1.0000 0.40600  0.02520  0.02520  Biso   1.000  C
  C57      1.0000 0.60990  0.88870  0.88870  Biso   1.000  C
  C58      1.0000 0.55600  0.94610  0.94610  Biso   1.000  C
  C59      1.0000 0.46470  0.97060  0.97060  Biso   1.000  C
  C60      1.0000 0.59400  0.97480  0.97480  Biso   1.000  C
  C61      1.0000 0.88870  0.88870  0.60990  Biso   1.000  C
  C62      1.0000 0.94610  0.94610  0.55600  Biso   1.000  C
  C63      1.0000 0.97060  0.97060  0.46470  Biso   1.000  C
  C64      1.0000 0.97480  0.97480  0.59400  Biso   1.000  C
  C65      1.0000 0.88870  0.60990  0.88870  Biso   1.000  C
  C66      1.0000 0.94610  0.55600  0.94610  Biso   1.000  C
  C67      1.0000 0.97060  0.46470  0.97060  Biso   1.000  C
  C68      1.0000 0.97480  0.59400  0.97480  Biso   1.000  C
  C69      1.0000 0.11170  0.38940  0.38940  Biso   1.000  C
  C70      1.0000 0.05990  0.44245  0.44245  Biso   1.000  C
  C71      1.0000 0.38940  0.11170  0.38940  Biso   1.000  C
  C72      1.0000 0.44245  0.05990  0.44245  Biso   1.000  C
  C73      1.0000 0.38940  0.38940  0.11170  Biso   1.000  C
  C74      1.0000 0.44245  0.44245  0.05990  Biso   1.000  C
  C75      1.0000 0.61060  0.88830  0.61060  Biso   1.000  C
  C76      1.0000 0.55755  0.94010  0.55755  Biso   1.000  C
  C77      1.0000 0.88830  0.61060  0.61060  Biso   1.000  C
  C78      1.0000 0.94010  0.55755  0.55755  Biso   1.000  C
  C79      1.0000 0.61060  0.61060  0.88830  Biso   1.000  C
  C80      1.0000 0.55755  0.55755  0.94010  Biso   1.000  C
  C81      1.0000 0.13529  0.42759  0.30119  Biso   1.000  C
  C82      1.0000 0.30119  0.13529  0.42759  Biso   1.000  C
  C83      1.0000 0.42759  0.30119  0.13529  Biso   1.000  C
  C84      1.0000 0.57241  0.86471  0.69881  Biso   1.000  C
  C85      1.0000 0.86471  0.69881  0.57241  Biso   1.000  C
  C86      1.0000 0.69881  0.57241  0.86471  Biso   1.000  C
  C87      1.0000 0.86471  0.57241  0.69881  Biso   1.000  C
  C88      1.0000 0.69881  0.86471  0.57241  Biso   1.000  C
  C89      1.0000 0.57241  0.69881  0.86471  Biso   1.000  C
  C90      1.0000 0.42759  0.13529  0.30119  Biso   1.000  C
  C91      1.0000 0.13529  0.30119  0.42759  Biso   1.000  C
  C92      1.0000 0.30119  0.42759  0.13529  Biso   1.000  C
  C93      1.0000 0.25153  0.25153  0.25153  Biso   1.000  C
  C94      1.0000 0.74847  0.74847  0.74847  Biso   1.000  C
  C95      1.0000 0.13410  0.30220  0.13410  Biso   1.000  C
  C96      1.0000 0.13380  0.42820  0.13380  Biso   1.000  C
  C97      1.0000 0.13410  0.13410  0.30220  Biso   1.000  C
  C98      1.0000 0.13380  0.13380  0.42820  Biso   1.000  C
  C99      1.0000 0.30220  0.13410  0.13410  Biso   1.000  C
  C100     1.0000 0.42820  0.13380  0.13380  Biso   1.000  C
  C101     1.0000 0.69780  0.86590  0.86590  Biso   1.000  C
  C102     1.0000 0.57180  0.86620  0.86620  Biso   1.000  C
  C103     1.0000 0.86590  0.86590  0.69780  Biso   1.000  C
  C104     1.0000 0.86620  0.86620  0.57180  Biso   1.000  C
  C105     1.0000 0.86590  0.69780  0.86590  Biso   1.000  C
  C106     1.0000 0.86620  0.57180  0.86620  Biso   1.000  C
  O1       1.0000 0.90595  0.60147  0.59353  Biso   1.000  O
  O2       1.0000 0.31582  0.18100  0.01492  Biso   1.000  O
  O3       1.0000 0.31466  0.00855  0.01492  Biso   1.000  O
  O4       1.0000 0.90479  0.42902  0.59353  Biso   1.000  O
  O5       1.0000 0.90468  0.60123  0.42165  Biso   1.000  O
  O6       1.0000 0.73030  0.60154  0.59374  Biso   1.000  O
  O7       1.0000 0.31594  0.00879  0.18680  Biso   1.000  O
  O8       1.0000 0.49031  0.00848  0.01471  Biso   1.000  O
  O9       1.0000 0.06647  0.23679  0.45425  Biso   1.000  O
  O10      1.0000 0.06006  0.46098  0.24354  Biso   1.000  O
  O11      1.0000 0.76574  0.23950  0.75224  Biso   1.000  O
  O12      1.0000 0.54364  0.46342  0.75746  Biso   1.000  O
  O13      1.0000 0.06473  0.46281  0.75047  Biso   1.000  O
  O14      1.0000 0.15734  0.84796  0.15420  Biso   1.000  O
  O15      1.0000 0.15851  0.84541  0.36491  Biso   1.000  O
  O16      1.0000 0.45811  0.85079  0.85621  Biso   1.000  O
  O17      1.0000 0.67498  0.85028  0.85099  Biso   1.000  O
  O18      1.0000 0.15066  0.37161  0.85798  Biso   1.000  O
  O19      1.0000 0.15415  0.37323  0.15420  Biso   1.000  O
  O20      1.0000 0.16056  0.14904  0.36491  Biso   1.000  O
  O21      1.0000 0.45488  0.37052  0.85621  Biso   1.000  O
  O22      1.0000 0.67697  0.14659  0.85099  Biso   1.000  O
  O23      1.0000 0.15589  0.14720  0.85798  Biso   1.000  O
  O24      1.0000 0.06327  0.76206  0.45425  Biso   1.000  O
  O25      1.0000 0.06210  0.76461  0.24354  Biso   1.000  O
  O26      1.0000 0.76250  0.75923  0.75224  Biso   1.000  O
  O27      1.0000 0.54564  0.75974  0.75746  Biso   1.000  O
  O28      1.0000 0.06995  0.23841  0.75047  Biso   1.000  O
  O29      1.0000 0.54777  0.76077  0.45494  Biso   1.000  O
  O30      1.0000 0.76075  0.76292  0.23970  Biso   1.000  O
  O31      1.0000 0.67285  0.84924  0.15351  Biso   1.000  O
  O32      1.0000 0.45986  0.84710  0.36875  Biso   1.000  O
  O33      1.0000 0.99927  0.41897  0.41613  Biso   1.000  O
  O34      1.0000 0.05745  0.36245  0.35663  Biso   1.000  O
  O35      1.0000 0.08528  0.26285  0.39288  Biso   1.000  O
  O36      1.0000 0.08091  0.39952  0.26876  Biso   1.000  O
  O37      1.0000 0.72201  0.42083  0.68861  Biso   1.000  O
  O38      1.0000 0.66456  0.36588  0.74466  Biso   1.000  O
  O39      1.0000 0.70358  0.26496  0.76948  Biso   1.000  O
  O40      1.0000 0.57107  0.40214  0.77283  Biso   1.000  O
  O41      1.0000 0.08082  0.40144  0.76968  Biso   1.000  O
  O42      1.0000 0.21949  0.91531  0.19232  Biso   1.000  O
  O43      1.0000 0.16053  0.85730  0.25182  Biso   1.000  O
  O44      1.0000 0.13859  0.83140  0.21557  Biso   1.000  O
  O45      1.0000 0.13715  0.82992  0.33969  Biso   1.000  O
  O46      1.0000 0.49676  0.91503  0.91985  Biso   1.000  O
  O47      1.0000 0.55346  0.85961  0.86380  Biso   1.000  O
  O48      1.0000 0.52032  0.83205  0.83897  Biso   1.000  O
  O49      1.0000 0.64701  0.83165  0.83562  Biso   1.000  O
  O50      1.0000 0.13399  0.34555  0.83877  Biso   1.000  O
  O51      1.0000 0.22134  0.19105  0.19232  Biso   1.000  O
  O52      1.0000 0.16316  0.24757  0.25182  Biso   1.000  O
  O53      1.0000 0.13533  0.34717  0.21557  Biso   1.000  O
  O54      1.0000 0.13971  0.21050  0.33969  Biso   1.000  O
  O55      1.0000 0.49861  0.18919  0.91985  Biso   1.000  O
  O56      1.0000 0.55605  0.24414  0.86380  Biso   1.000  O
  O57      1.0000 0.51704  0.34506  0.83897  Biso   1.000  O
  O58      1.0000 0.64954  0.20788  0.83562  Biso   1.000  O
  O59      1.0000 0.13980  0.20858  0.83877  Biso   1.000  O
  O60      1.0000 0.00113  0.69471  0.41613  Biso   1.000  O
  O61      1.0000 0.06008  0.75272  0.35663  Biso   1.000  O
  O62      1.0000 0.08202  0.77862  0.39288  Biso   1.000  O
  O63      1.0000 0.08347  0.78010  0.26876  Biso   1.000  O
  O64      1.0000 0.72385  0.69498  0.68861  Biso   1.000  O
  O65      1.0000 0.66715  0.75041  0.74466  Biso   1.000  O
  O66      1.0000 0.70030  0.77797  0.76948  Biso   1.000  O
  O67      1.0000 0.57360  0.77837  0.77283  Biso   1.000  O
  O68      1.0000 0.08663  0.26447  0.76968  Biso   1.000  O
  O69      1.0000 0.72401  0.69638  0.40963  Biso   1.000  O
  O70      1.0000 0.66456  0.75173  0.35742  Biso   1.000  O
  O71      1.0000 0.57426  0.77813  0.39387  Biso   1.000  O
  O72      1.0000 0.69839  0.78019  0.26679  Biso   1.000  O
  O73      1.0000 0.00009  0.42368  0.68348  Biso   1.000  O
  O74      1.0000 0.05877  0.36429  0.74456  Biso   1.000  O
  O75      1.0000 0.49660  0.91364  0.19882  Biso   1.000  O
  O76      1.0000 0.55606  0.85829  0.25103  Biso   1.000  O
  O77      1.0000 0.64635  0.83189  0.21458  Biso   1.000  O
  O78      1.0000 0.52222  0.82983  0.34166  Biso   1.000  O
  O79      1.0000 0.22053  0.18634  0.92497  Biso   1.000  O
  O80      1.0000 0.16185  0.24573  0.86389  Biso   1.000  O
  O81      1.0000 0.97737  0.50362  0.37328  Biso   1.000  O
  O82      1.0000 0.97968  0.37911  0.49760  Biso   1.000  O
  O83      1.0000 0.68131  0.50543  0.66368  Biso   1.000  O
  O84      1.0000 0.80636  0.38101  0.66644  Biso   1.000  O
  O85      1.0000 0.97941  0.50572  0.66418  Biso   1.000  O
  O86      1.0000 0.24210  0.93529  0.23517  Biso   1.000  O
  O87      1.0000 0.23896  0.93736  0.11085  Biso   1.000  O
  O88      1.0000 0.53816  0.93428  0.94477  Biso   1.000  O
  O89      1.0000 0.41228  0.93645  0.94201  Biso   1.000  O
  O90      1.0000 0.24204  0.22832  0.94428  Biso   1.000  O
  O91      1.0000 0.24325  0.10639  0.23517  Biso   1.000  O
  O92      1.0000 0.24093  0.23090  0.11085  Biso   1.000  O
  O93      1.0000 0.53931  0.10459  0.94477  Biso   1.000  O
  O94      1.0000 0.41425  0.22901  0.94201  Biso   1.000  O
  O95      1.0000 0.24120  0.10429  0.94428  Biso   1.000  O
  O96      1.0000 0.97852  0.67473  0.37328  Biso   1.000  O
  O97      1.0000 0.98166  0.67266  0.49760  Biso   1.000  O
  O98      1.0000 0.68246  0.67574  0.66368  Biso   1.000  O
  O99      1.0000 0.80833  0.67357  0.66644  Biso   1.000  O
  O100     1.0000 0.97858  0.38170  0.66418  Biso   1.000  O
  O101     1.0000 0.86146  0.55846  0.55030  Biso   1.000  O
  O102     1.0000 0.80639  0.67334  0.37427  Biso   1.000  O
  O103     1.0000 0.68274  0.67522  0.49297  Biso   1.000  O
  O104     1.0000 0.35916  0.05156  0.05815  Biso   1.000  O
  O105     1.0000 0.41422  0.93667  0.23419  Biso   1.000  O
  O106     1.0000 0.53787  0.93480  0.11548  Biso   1.000  O
