data_image0
_cell_length_a       18.3149
_cell_length_b       18.3149
_cell_length_c       18.3149
_cell_angle_alpha    60.3295
_cell_angle_beta     60.3295
_cell_angle_gamma    60.3295

_symmetry_space_group_name_H-M    "P 1"
_symmetry_int_tables_number       1

loop_
  _symmetry_equiv_pos_as_xyz
  'x, y, z'

loop_
  _atom_site_label
  _atom_site_occupancy
  _atom_site_fract_x
  _atom_site_fract_y
  _atom_site_fract_z
  _atom_site_thermal_displace_type
  _atom_site_B_iso_or_equiv
  _atom_site_type_symbol
  Zn1      1.0000 0.20609  0.20609  0.20609  Biso   1.000  Zn
  Zn2      1.0000 0.79391  0.79391  0.79391  Biso   1.000  Zn
  Zn3      1.0000 0.20677  0.37952  0.20677  Biso   1.000  Zn
  Zn4      1.0000 0.20677  0.20677  0.37952  Biso   1.000  Zn
  Zn5      1.0000 0.37952  0.20677  0.20677  Biso   1.000  Zn
  Zn6      1.0000 0.62048  0.79323  0.79323  Biso   1.000  Zn
  Zn7      1.0000 0.79323  0.79323  0.62048  Biso   1.000  Zn
  Zn8      1.0000 0.79323  0.62048  0.79323  Biso   1.000  Zn
  H1       1.0000 0.04260  0.34350  0.56530  Biso   1.000  H
  H2       1.0000 0.56530  0.04260  0.34350  Biso   1.000  H
  H3       1.0000 0.34350  0.56530  0.04260  Biso   1.000  H
  H4       1.0000 0.65650  0.95740  0.43470  Biso   1.000  H
  H5       1.0000 0.95740  0.43470  0.65650  Biso   1.000  H
  H6       1.0000 0.43470  0.65650  0.95740  Biso   1.000  H
  H7       1.0000 0.95740  0.65650  0.43470  Biso   1.000  H
  H8       1.0000 0.43470  0.95740  0.65650  Biso   1.000  H
  H9       1.0000 0.65650  0.43470  0.95740  Biso   1.000  H
  H10      1.0000 0.34350  0.04260  0.56530  Biso   1.000  H
  H11      1.0000 0.04260  0.56530  0.34350  Biso   1.000  H
  H12      1.0000 0.56530  0.34350  0.04260  Biso   1.000  H
  H13      1.0000 0.04880  0.55860  0.04880  Biso   1.000  H
  H14      1.0000 0.04170  0.34450  0.04170  Biso   1.000  H
  H15      1.0000 0.04880  0.04880  0.55860  Biso   1.000  H
  H16      1.0000 0.04170  0.04170  0.34450  Biso   1.000  H
  H17      1.0000 0.55860  0.04880  0.04880  Biso   1.000  H
  H18      1.0000 0.34450  0.04170  0.04170  Biso   1.000  H
  H19      1.0000 0.44140  0.95120  0.95120  Biso   1.000  H
  H20      1.0000 0.65550  0.95830  0.95830  Biso   1.000  H
  H21      1.0000 0.95120  0.95120  0.44140  Biso   1.000  H
  H22      1.0000 0.95830  0.95830  0.65550  Biso   1.000  H
  H23      1.0000 0.95120  0.44140  0.95120  Biso   1.000  H
  H24      1.0000 0.95830  0.65550  0.95830  Biso   1.000  H
  C1       1.0000 0.02770  0.40510  0.53870  Biso   1.000  C
  C2       1.0000 0.53870  0.02770  0.40510  Biso   1.000  C
  C3       1.0000 0.40510  0.53870  0.02770  Biso   1.000  C
  C4       1.0000 0.59490  0.97230  0.46130  Biso   1.000  C
  C5       1.0000 0.97230  0.46130  0.59490  Biso   1.000  C
  C6       1.0000 0.46130  0.59490  0.97230  Biso   1.000  C
  C7       1.0000 0.97230  0.59490  0.46130  Biso   1.000  C
  C8       1.0000 0.46130  0.97230  0.59490  Biso   1.000  C
  C9       1.0000 0.59490  0.46130  0.97230  Biso   1.000  C
  C10      1.0000 0.40510  0.02770  0.53870  Biso   1.000  C
  C11      1.0000 0.02770  0.53870  0.40510  Biso   1.000  C
  C12      1.0000 0.53870  0.40510  0.02770  Biso   1.000  C
  C13      1.0000 0.11130  0.39010  0.11130  Biso   1.000  C
  C14      1.0000 0.05390  0.44400  0.05390  Biso   1.000  C
  C15      1.0000 0.02940  0.53530  0.02940  Biso   1.000  C
  C16      1.0000 0.02520  0.40600  0.02520  Biso   1.000  C
  C17      1.0000 0.11130  0.11130  0.39010  Biso   1.000  C
  C18      1.0000 0.05390  0.05390  0.44400  Biso   1.000  C
  C19      1.0000 0.02940  0.02940  0.53530  Biso   1.000  C
  C20      1.0000 0.02520  0.02520  0.40600  Biso   1.000  C
  C21      1.0000 0.39010  0.11130  0.11130  Biso   1.000  C
  C22      1.0000 0.44400  0.05390  0.05390  Biso   1.000  C
  C23      1.0000 0.53530  0.02940  0.02940  Biso   1.000  C
  C24      1.0000 0.40600  0.02520  0.02520  Biso   1.000  C
  C25      1.0000 0.60990  0.88870  0.88870  Biso   1.000  C
  C26      1.0000 0.55600  0.94610  0.94610  Biso   1.000  C
  C27      1.0000 0.46470  0.97060  0.97060  Biso   1.000  C
  C28      1.0000 0.59400  0.97480  0.97480  Biso   1.000  C
  C29      1.0000 0.88870  0.88870  0.60990  Biso   1.000  C
  C30      1.0000 0.94610  0.94610  0.55600  Biso   1.000  C
  C31      1.0000 0.97060  0.97060  0.46470  Biso   1.000  C
  C32      1.0000 0.97480  0.97480  0.59400  Biso   1.000  C
  C33      1.0000 0.88870  0.60990  0.88870  Biso   1.000  C
  C34      1.0000 0.94610  0.55600  0.94610  Biso   1.000  C
  C35      1.0000 0.97060  0.46470  0.97060  Biso   1.000  C
  C36      1.0000 0.97480  0.59400  0.97480  Biso   1.000  C
  C37      1.0000 0.11170  0.38940  0.38940  Biso   1.000  C
  C38      1.0000 0.05990  0.44245  0.44245  Biso   1.000  C
  C39      1.0000 0.38940  0.11170  0.38940  Biso   1.000  C
  C40      1.0000 0.44245  0.05990  0.44245  Biso   1.000  C
  C41      1.0000 0.38940  0.38940  0.11170  Biso   1.000  C
  C42      1.0000 0.44245  0.44245  0.05990  Biso   1.000  C
  C43      1.0000 0.61060  0.88830  0.61060  Biso   1.000  C
  C44      1.0000 0.55755  0.94010  0.55755  Biso   1.000  C
  C45      1.0000 0.88830  0.61060  0.61060  Biso   1.000  C
  C46      1.0000 0.94010  0.55755  0.55755  Biso   1.000  C
  C47      1.0000 0.61060  0.61060  0.88830  Biso   1.000  C
  C48      1.0000 0.55755  0.55755  0.94010  Biso   1.000  C
  O1       1.0000 0.13529  0.42759  0.30119  Biso   1.000  O
  O2       1.0000 0.30119  0.13529  0.42759  Biso   1.000  O
  O3       1.0000 0.42759  0.30119  0.13529  Biso   1.000  O
  O4       1.0000 0.57241  0.86471  0.69881  Biso   1.000  O
  O5       1.0000 0.86471  0.69881  0.57241  Biso   1.000  O
  O6       1.0000 0.69881  0.57241  0.86471  Biso   1.000  O
  O7       1.0000 0.86471  0.57241  0.69881  Biso   1.000  O
  O8       1.0000 0.69881  0.86471  0.57241  Biso   1.000  O
  O9       1.0000 0.57241  0.69881  0.86471  Biso   1.000  O
  O10      1.0000 0.42759  0.13529  0.30119  Biso   1.000  O
  O11      1.0000 0.13529  0.30119  0.42759  Biso   1.000  O
  O12      1.0000 0.30119  0.42759  0.13529  Biso   1.000  O
  O13      1.0000 0.25153  0.25153  0.25153  Biso   1.000  O
  O14      1.0000 0.74847  0.74847  0.74847  Biso   1.000  O
  O15      1.0000 0.13410  0.30220  0.13410  Biso   1.000  O
  O16      1.0000 0.13380  0.42820  0.13380  Biso   1.000  O
  O17      1.0000 0.13410  0.13410  0.30220  Biso   1.000  O
  O18      1.0000 0.13380  0.13380  0.42820  Biso   1.000  O
  O19      1.0000 0.30220  0.13410  0.13410  Biso   1.000  O
  O20      1.0000 0.42820  0.13380  0.13380  Biso   1.000  O
  O21      1.0000 0.69780  0.86590  0.86590  Biso   1.000  O
  O22      1.0000 0.57180  0.86620  0.86620  Biso   1.000  O
  O23      1.0000 0.86590  0.86590  0.69780  Biso   1.000  O
  O24      1.0000 0.86620  0.86620  0.57180  Biso   1.000  O
  O25      1.0000 0.86590  0.69780  0.86590  Biso   1.000  O
  O26      1.0000 0.86620  0.57180  0.86620  Biso   1.000  O
  Zn9      1.0000 1.00000  0.00000  0.00000  Biso   1.000  Zn
  Zn10     1.0000 0.00101  0.00043  0.17141  Biso   1.000  Zn
  Zn11     1.0000 0.82604  0.00043  0.17141  Biso   1.000  Zn
  Zn12     1.0000 0.99986  0.82831  0.17141  Biso   1.000  Zn
  Zn13     1.0000 0.42187  0.40983  0.74908  Biso   1.000  Zn
  Zn14     1.0000 0.42086  0.40940  0.57767  Biso   1.000  Zn
  Zn15     1.0000 0.42201  0.58152  0.57767  Biso   1.000  Zn
  Zn16     1.0000 0.59583  0.40940  0.57767  Biso   1.000  Zn
  H25      1.0000 0.16909  0.16262  0.80343  Biso   1.000  H
  H26      1.0000 0.16452  0.16068  0.03204  Biso   1.000  H
  H27      1.0000 0.64618  0.86088  0.33134  Biso   1.000  H
  H28      1.0000 0.86395  0.63548  0.33134  Biso   1.000  H
  H29      1.0000 0.16771  0.63473  0.03204  Biso   1.000  H
  H30      1.0000 0.16707  0.86206  0.80343  Biso   1.000  H
  H31      1.0000 0.64820  0.16143  0.33134  Biso   1.000  H
  H32      1.0000 0.86076  0.16143  0.33134  Biso   1.000  H
  H33      1.0000 0.16427  0.86088  0.33134  Biso   1.000  H
  H34      1.0000 0.16948  0.63548  0.33134  Biso   1.000  H
  H35      1.0000 0.64643  0.16068  0.03204  Biso   1.000  H
  H36      1.0000 0.86355  0.16262  0.80343  Biso   1.000  H
  H37      1.0000 0.25278  0.24721  0.94565  Biso   1.000  H
  H38      1.0000 0.25735  0.24915  0.71704  Biso   1.000  H
  H39      1.0000 0.55792  0.77435  0.41773  Biso   1.000  H
  H40      1.0000 0.77569  0.54895  0.41773  Biso   1.000  H
  H41      1.0000 0.77544  0.24915  0.71704  Biso   1.000  H
  H42      1.0000 0.55832  0.24721  0.94565  Biso   1.000  H
  H43      1.0000 0.25239  0.77435  0.41773  Biso   1.000  H
  H44      1.0000 0.25760  0.54895  0.41773  Biso   1.000  H
  H45      1.0000 0.56111  0.24840  0.41773  Biso   1.000  H
  H46      1.0000 0.77367  0.24840  0.41773  Biso   1.000  H
  H47      1.0000 0.25416  0.77510  0.71704  Biso   1.000  H
  H48      1.0000 0.25480  0.54777  0.94565  Biso   1.000  H
  C49      1.0000 0.18703  0.18006  0.82994  Biso   1.000  C
  C50      1.0000 0.18195  0.17791  0.97091  Biso   1.000  C
  C51      1.0000 0.67294  0.79954  0.34865  Biso   1.000  C
  C52      1.0000 0.80183  0.66216  0.34865  Biso   1.000  C
  C53      1.0000 0.18520  0.66121  0.97091  Biso   1.000  C
  C54      1.0000 0.18448  0.80074  0.82994  Biso   1.000  C
  C55      1.0000 0.67549  0.17886  0.34865  Biso   1.000  C
  C56      1.0000 0.79857  0.17886  0.34865  Biso   1.000  C
  C57      1.0000 0.18163  0.79954  0.34865  Biso   1.000  C
  C58      1.0000 0.18743  0.66216  0.34865  Biso   1.000  C
  C59      1.0000 0.67326  0.17791  0.97091  Biso   1.000  C
  C60      1.0000 0.80142  0.18006  0.82994  Biso   1.000  C
  C61      1.0000 0.23484  0.22977  0.91913  Biso   1.000  C
  C62      1.0000 0.23992  0.23192  0.77817  Biso   1.000  C
  C63      1.0000 0.62004  0.74768  0.40043  Biso   1.000  C
  C64      1.0000 0.74893  0.61030  0.40043  Biso   1.000  C
  C65      1.0000 0.74861  0.23192  0.77817  Biso   1.000  C
  C66      1.0000 0.62045  0.22977  0.91913  Biso   1.000  C
  C67      1.0000 0.23444  0.74768  0.40043  Biso   1.000  C
  C68      1.0000 0.24024  0.61030  0.40043  Biso   1.000  C
  C69      1.0000 0.62329  0.23098  0.40043  Biso   1.000  C
  C70      1.0000 0.74638  0.23098  0.40043  Biso   1.000  C
  C71      1.0000 0.23667  0.74863  0.77817  Biso   1.000  C
  C72      1.0000 0.23739  0.60909  0.91913  Biso   1.000  C
  C73      1.0000 0.09614  0.09399  0.99209  Biso   1.000  C
  C74      1.0000 0.15384  0.15056  0.93561  Biso   1.000  C
  C75      1.0000 0.81730  0.82060  0.26503  Biso   1.000  C
  C76      1.0000 0.75960  0.76403  0.32151  Biso   1.000  C
  C77      1.0000 0.09430  0.81991  0.99209  Biso   1.000  C
  C78      1.0000 0.15124  0.76306  0.93561  Biso   1.000  C
  C79      1.0000 0.81914  0.09468  0.26503  Biso   1.000  C
  C80      1.0000 0.76220  0.15153  0.32151  Biso   1.000  C
  C81      1.0000 0.09591  0.82060  0.26503  Biso   1.000  C
  C82      1.0000 0.15352  0.76403  0.32151  Biso   1.000  C
  C83      1.0000 0.81753  0.09399  0.99209  Biso   1.000  C
  C84      1.0000 0.75992  0.15056  0.93561  Biso   1.000  C
  C85      1.0000 0.32573  0.31584  0.75699  Biso   1.000  C
  C86      1.0000 0.26803  0.25927  0.81346  Biso   1.000  C
  C87      1.0000 0.60457  0.58923  0.48405  Biso   1.000  C
  C88      1.0000 0.66227  0.64580  0.42757  Biso   1.000  C
  C89      1.0000 0.60434  0.31584  0.75699  Biso   1.000  C
  C90      1.0000 0.66195  0.25927  0.81346  Biso   1.000  C
  C91      1.0000 0.32596  0.58923  0.48405  Biso   1.000  C
  C92      1.0000 0.26835  0.64580  0.42757  Biso   1.000  C
  C93      1.0000 0.60273  0.31516  0.48405  Biso   1.000  C
  C94      1.0000 0.65967  0.25830  0.42757  Biso   1.000  C
  C95      1.0000 0.32757  0.58992  0.75699  Biso   1.000  C
  C96      1.0000 0.27063  0.64677  0.81346  Biso   1.000  C
  O27      1.0000 0.95672  0.95729  0.12856  Biso   1.000  O
  O28      1.0000 0.46515  0.45254  0.62052  Biso   1.000  O
  O29      1.0000 0.07306  0.07156  0.95463  Biso   1.000  O
  O30      1.0000 0.07377  0.07186  0.07404  Biso   1.000  O
  O31      1.0000 0.77948  0.90284  0.24278  Biso   1.000  O
  O32      1.0000 0.90057  0.78293  0.24278  Biso   1.000  O
  O33      1.0000 0.07182  0.78251  0.07404  Biso   1.000  O
  O34      1.0000 0.07192  0.90211  0.95463  Biso   1.000  O
  O35      1.0000 0.78062  0.07228  0.24278  Biso   1.000  O
  O36      1.0000 0.90251  0.07228  0.24278  Biso   1.000  O
  O37      1.0000 0.07363  0.90284  0.24278  Biso   1.000  O
  O38      1.0000 0.07282  0.78293  0.24278  Biso   1.000  O
  O39      1.0000 0.77962  0.07186  0.07404  Biso   1.000  O
  O40      1.0000 0.90081  0.07156  0.95463  Biso   1.000  O
  O41      1.0000 0.34881  0.33828  0.79444  Biso   1.000  O
  O42      1.0000 0.34810  0.33798  0.67504  Biso   1.000  O
  O43      1.0000 0.52130  0.62690  0.50629  Biso   1.000  O
  O44      1.0000 0.64239  0.50700  0.50629  Biso   1.000  O
  O45      1.0000 0.64225  0.33798  0.67504  Biso   1.000  O
  O46      1.0000 0.52106  0.33828  0.79444  Biso   1.000  O
  O47      1.0000 0.34905  0.62690  0.50629  Biso   1.000  O
  O48      1.0000 0.34824  0.50700  0.50629  Biso   1.000  O
  O49      1.0000 0.51936  0.33755  0.50629  Biso   1.000  O
  O50      1.0000 0.64125  0.33755  0.50629  Biso   1.000  O
  O51      1.0000 0.35005  0.62733  0.67504  Biso   1.000  O
  O52      1.0000 0.34995  0.50772  0.79444  Biso   1.000  O
