data_image0
_cell_length_a       27.9999
_cell_length_b       27.9999
_cell_length_c       29.5858
_cell_angle_alpha    61.7579
_cell_angle_beta     61.7579
_cell_angle_gamma    90

_symmetry_space_group_name_H-M    "P 1"
_symmetry_int_tables_number       1

loop_
  _symmetry_equiv_pos_as_xyz
  'x, y, z'

loop_
  _atom_site_label
  _atom_site_occupancy
  _atom_site_fract_x
  _atom_site_fract_y
  _atom_site_fract_z
  _atom_site_thermal_displace_type
  _atom_site_B_iso_or_equiv
  _atom_site_type_symbol
  Cu1      1.0000 0.95660  0.00561  0.98891  Biso   1.000  Cu
  Cu2      1.0000 0.55466  0.00564  0.98891  Biso   1.000  Cu
  Cu3      1.0000 0.50579  0.05420  0.48898  Biso   1.000  Cu
  Cu4      1.0000 0.50566  0.45689  0.48891  Biso   1.000  Cu
  Cu5      1.0000 0.44594  0.99468  0.01099  Biso   1.000  Cu
  Cu6      1.0000 0.04336  0.99454  0.01085  Biso   1.000  Cu
  Cu7      1.0000 0.49470  0.94579  0.51108  Biso   1.000  Cu
  Cu8      1.0000 0.49458  0.54319  0.51100  Biso   1.000  Cu
  H1       1.0000 0.15138  0.16179  0.88515  Biso   1.000  H
  H2       1.0000 0.19751  0.26344  0.81215  Biso   1.000  H
  H3       1.0000 0.05940  0.28075  0.78355  Biso   1.000  H
  H4       1.0000 0.01313  0.17922  0.85632  Biso   1.000  H
  H5       1.0000 0.46326  0.95316  0.88533  Biso   1.000  H
  H6       1.0000 0.49013  0.92447  0.81234  Biso   1.000  H
  H7       1.0000 0.65682  0.93574  0.78379  Biso   1.000  H
  H8       1.0000 0.63035  0.96454  0.85649  Biso   1.000  H
  H9       1.0000 0.66194  0.96317  0.38511  Biso   1.000  H
  H10      1.0000 0.76364  0.99021  0.31203  Biso   1.000  H
  H11      1.0000 0.78063  0.15684  0.28367  Biso   1.000  H
  H12      1.0000 0.67914  0.13019  0.35645  Biso   1.000  H
  H13      1.0000 0.45315  0.65169  0.38512  Biso   1.000  H
  H14      1.0000 0.42445  0.69775  0.31211  Biso   1.000  H
  H15      1.0000 0.43568  0.55951  0.28373  Biso   1.000  H
  H16      1.0000 0.46447  0.51333  0.35646  Biso   1.000  H
  H17      1.0000 0.53682  0.83824  0.11490  Biso   1.000  H
  H18      1.0000 0.50973  0.73654  0.18794  Biso   1.000  H
  H19      1.0000 0.34316  0.71964  0.21617  Biso   1.000  H
  H20      1.0000 0.36987  0.82118  0.14339  Biso   1.000  H
  H21      1.0000 0.84849  0.04703  0.11476  Biso   1.000  H
  H22      1.0000 0.80246  0.07566  0.18781  Biso   1.000  H
  H23      1.0000 0.94068  0.06426  0.21622  Biso   1.000  H
  H24      1.0000 0.98685  0.03554  0.14343  Biso   1.000  H
  H25      1.0000 0.54704  0.03676  0.61493  Biso   1.000  H
  H26      1.0000 0.57546  0.00969  0.68816  Biso   1.000  H
  H27      1.0000 0.56413  0.84305  0.71655  Biso   1.000  H
  H28      1.0000 0.53561  0.86974  0.64361  Biso   1.000  H
  H29      1.0000 0.33821  0.34828  0.61485  Biso   1.000  H
  H30      1.0000 0.23651  0.30226  0.68801  Biso   1.000  H
  H31      1.0000 0.21966  0.44059  0.71626  Biso   1.000  H
  H32      1.0000 0.32115  0.48671  0.64339  Biso   1.000  H
  H33      1.0000 0.84855  0.83829  0.11477  Biso   1.000  H
  H34      1.0000 0.80254  0.73662  0.18775  Biso   1.000  H
  H35      1.0000 0.94074  0.71951  0.21619  Biso   1.000  H
  H36      1.0000 0.98690  0.82105  0.14345  Biso   1.000  H
  H37      1.0000 0.53704  0.04710  0.11483  Biso   1.000  H
  H38      1.0000 0.50998  0.07573  0.18791  Biso   1.000  H
  H39      1.0000 0.34337  0.06437  0.21625  Biso   1.000  H
  H40      1.0000 0.37003  0.03565  0.14346  Biso   1.000  H
  H41      1.0000 0.33833  0.03694  0.61472  Biso   1.000  H
  H42      1.0000 0.23662  0.00990  0.68781  Biso   1.000  H
  H43      1.0000 0.21961  0.84331  0.71614  Biso   1.000  H
  H44      1.0000 0.32110  0.86993  0.64336  Biso   1.000  H
  H45      1.0000 0.54705  0.34844  0.61485  Biso   1.000  H
  H46      1.0000 0.57577  0.30243  0.68784  Biso   1.000  H
  H47      1.0000 0.56441  0.44066  0.71625  Biso   1.000  H
  H48      1.0000 0.53559  0.48677  0.64354  Biso   1.000  H
  H49      1.0000 0.46359  0.16191  0.88514  Biso   1.000  H
  H50      1.0000 0.49057  0.26357  0.81204  Biso   1.000  H
  H51      1.0000 0.65724  0.28072  0.78353  Biso   1.000  H
  H52      1.0000 0.63065  0.17922  0.85637  Biso   1.000  H
  H53      1.0000 0.15148  0.95310  0.88518  Biso   1.000  H
  H54      1.0000 0.19763  0.92448  0.81213  Biso   1.000  H
  H55      1.0000 0.05949  0.93576  0.78359  Biso   1.000  H
  H56      1.0000 0.01321  0.96447  0.85638  Biso   1.000  H
  H57      1.0000 0.45309  0.96319  0.38527  Biso   1.000  H
  H58      1.0000 0.42449  0.99027  0.31217  Biso   1.000  H
  H59      1.0000 0.43585  0.15686  0.28387  Biso   1.000  H
  H60      1.0000 0.46455  0.13018  0.35668  Biso   1.000  H
  H61      1.0000 0.66197  0.65180  0.38503  Biso   1.000  H
  H62      1.0000 0.76365  0.69785  0.31186  Biso   1.000  H
  H63      1.0000 0.78055  0.55953  0.28358  Biso   1.000  H
  H64      1.0000 0.67907  0.51339  0.35647  Biso   1.000  H
  C1       1.0000 0.87089  0.05808  0.96813  Biso   1.000  C
  C2       1.0000 0.82375  0.06199  0.96196  Biso   1.000  C
  C3       1.0000 0.04959  0.10121  0.92222  Biso   1.000  C
  C4       1.0000 0.07870  0.16237  0.87636  Biso   1.000  C
  C5       1.0000 0.13117  0.18715  0.86275  Biso   1.000  C
  C6       1.0000 0.15775  0.24523  0.82075  Biso   1.000  C
  C7       1.0000 0.13228  0.27971  0.79173  Biso   1.000  C
  C8       1.0000 0.07994  0.25501  0.80524  Biso   1.000  C
  C9       1.0000 0.05357  0.19691  0.84681  Biso   1.000  C
  C10      1.0000 0.66122  0.97406  0.96802  Biso   1.000  C
  C11      1.0000 0.71451  0.97634  0.96188  Biso   1.000  C
  C12      1.0000 0.52812  0.97668  0.92235  Biso   1.000  C
  C13      1.0000 0.54475  0.96136  0.87653  Biso   1.000  C
  C14      1.0000 0.50586  0.95018  0.86295  Biso   1.000  C
  C15      1.0000 0.52127  0.93405  0.82097  Biso   1.000  C
  C16      1.0000 0.57577  0.92856  0.79200  Biso   1.000  C
  C17      1.0000 0.61460  0.93979  0.80547  Biso   1.000  C
  C18      1.0000 0.59942  0.95635  0.84700  Biso   1.000  C
  C19      1.0000 0.55793  0.16113  0.46798  Biso   1.000  C
  C20      1.0000 0.56121  0.21457  0.46157  Biso   1.000  C
  C21      1.0000 0.60132  0.02789  0.42231  Biso   1.000  C
  C22      1.0000 0.66243  0.04461  0.37641  Biso   1.000  C
  C23      1.0000 0.68726  0.00579  0.36275  Biso   1.000  C
  C24      1.0000 0.74537  0.02129  0.32073  Biso   1.000  C
  C25      1.0000 0.77976  0.07583  0.29176  Biso   1.000  C
  C26      1.0000 0.75497  0.11459  0.30533  Biso   1.000  C
  C27      1.0000 0.69689  0.09931  0.34689  Biso   1.000  C
  C28      1.0000 0.47276  0.37098  0.46658  Biso   1.000  C
  C29      1.0000 0.47576  0.32414  0.46030  Biso   1.000  C
  C30      1.0000 0.47664  0.54979  0.42226  Biso   1.000  C
  C31      1.0000 0.46131  0.57894  0.37643  Biso   1.000  C
  C32      1.0000 0.45014  0.63143  0.36278  Biso   1.000  C
  C33      1.0000 0.43402  0.65797  0.32078  Biso   1.000  C
  C34      1.0000 0.42853  0.63242  0.29182  Biso   1.000  C
  C35      1.0000 0.43974  0.58009  0.30538  Biso   1.000  C
  C36      1.0000 0.45629  0.55377  0.34692  Biso   1.000  C
  C37      1.0000 0.33741  0.93934  0.03322  Biso   1.000  C
  C38      1.0000 0.28432  0.93625  0.03927  Biso   1.000  C
  C39      1.0000 0.47224  0.89901  0.07762  Biso   1.000  C
  C40      1.0000 0.45543  0.83785  0.12349  Biso   1.000  C
  C41      1.0000 0.49420  0.81295  0.13721  Biso   1.000  C
  C42      1.0000 0.47866  0.75484  0.17924  Biso   1.000  C
  C43      1.0000 0.42412  0.72047  0.20819  Biso   1.000  C
  C44      1.0000 0.38540  0.74530  0.19456  Biso   1.000  C
  C45      1.0000 0.40073  0.80340  0.15297  Biso   1.000  C
  C46      1.0000 0.12918  0.02584  0.03177  Biso   1.000  C
  C47      1.0000 0.17618  0.02321  0.03818  Biso   1.000  C
  C48      1.0000 0.95037  0.02352  0.07757  Biso   1.000  C
  C49      1.0000 0.92125  0.03880  0.12344  Biso   1.000  C
  C50      1.0000 0.86876  0.04999  0.13710  Biso   1.000  C
  C51      1.0000 0.84224  0.06607  0.17913  Biso   1.000  C
  C52      1.0000 0.86779  0.07148  0.20811  Biso   1.000  C
  C53      1.0000 0.92011  0.06026  0.19454  Biso   1.000  C
  C54      1.0000 0.94642  0.04375  0.15296  Biso   1.000  C
  C55      1.0000 0.52579  0.83907  0.53239  Biso   1.000  C
  C56      1.0000 0.52311  0.78571  0.53873  Biso   1.000  C
  C57      1.0000 0.52362  0.97205  0.57775  Biso   1.000  C
  C58      1.0000 0.53883  0.95531  0.62365  Biso   1.000  C
  C59      1.0000 0.54996  0.99413  0.63733  Biso   1.000  C
  C60      1.0000 0.56594  0.97861  0.67944  Biso   1.000  C
  C61      1.0000 0.57133  0.92407  0.70844  Biso   1.000  C
  C62      1.0000 0.56016  0.88531  0.69485  Biso   1.000  C
  C63      1.0000 0.54375  0.90061  0.65320  Biso   1.000  C
  C64      1.0000 0.44208  0.62858  0.53233  Biso   1.000  C
  C65      1.0000 0.43841  0.67559  0.53868  Biso   1.000  C
  C66      1.0000 0.39897  0.45019  0.57759  Biso   1.000  C
  C67      1.0000 0.33781  0.42106  0.62347  Biso   1.000  C
  C68      1.0000 0.31292  0.36856  0.63719  Biso   1.000  C
  C69      1.0000 0.25481  0.34206  0.67926  Biso   1.000  C
  C70      1.0000 0.22044  0.36766  0.70820  Biso   1.000  C
  C71      1.0000 0.24529  0.41998  0.69460  Biso   1.000  C
  C72      1.0000 0.30338  0.44626  0.65298  Biso   1.000  C
  C73      1.0000 0.12873  0.94181  0.03186  Biso   1.000  C
  C74      1.0000 0.17575  0.93756  0.03820  Biso   1.000  C
  C75      1.0000 0.95036  0.89896  0.07759  Biso   1.000  C
  C76      1.0000 0.92128  0.83781  0.12347  Biso   1.000  C
  C77      1.0000 0.86881  0.81297  0.13713  Biso   1.000  C
  C78      1.0000 0.84229  0.75487  0.17911  Biso   1.000  C
  C79      1.0000 0.86783  0.72045  0.20808  Biso   1.000  C
  C80      1.0000 0.92016  0.74521  0.19454  Biso   1.000  C
  C81      1.0000 0.94646  0.80332  0.15298  Biso   1.000  C
  C82      1.0000 0.33885  0.02566  0.03203  Biso   1.000  C
  C83      1.0000 0.28553  0.02281  0.03812  Biso   1.000  C
  C84      1.0000 0.47235  0.02362  0.07762  Biso   1.000  C
  C85      1.0000 0.45561  0.03889  0.12350  Biso   1.000  C
  C86      1.0000 0.49442  0.05006  0.13718  Biso   1.000  C
  C87      1.0000 0.47889  0.06613  0.17922  Biso   1.000  C
  C88      1.0000 0.42436  0.07155  0.20819  Biso   1.000  C
  C89      1.0000 0.38562  0.06035  0.19460  Biso   1.000  C
  C90      1.0000 0.40091  0.04384  0.15302  Biso   1.000  C
  C91      1.0000 0.43976  0.83743  0.53297  Biso   1.000  C
  C92      1.0000 0.43682  0.78426  0.53928  Biso   1.000  C
  C93      1.0000 0.39905  0.97218  0.57762  Biso   1.000  C
  C94      1.0000 0.33787  0.95550  0.62341  Biso   1.000  C
  C95      1.0000 0.31302  0.99432  0.63707  Biso   1.000  C
  C96      1.0000 0.25490  0.97881  0.67912  Biso   1.000  C
  C97      1.0000 0.22050  0.92428  0.70811  Biso   1.000  C
  C98      1.0000 0.24529  0.88554  0.69450  Biso   1.000  C
  C99      1.0000 0.30338  0.90082  0.65292  Biso   1.000  C
  C100     1.0000 0.52746  0.62958  0.53303  Biso   1.000  C
  C101     1.0000 0.52409  0.67643  0.53935  Biso   1.000  C
  C102     1.0000 0.52355  0.45032  0.57768  Biso   1.000  C
  C103     1.0000 0.53883  0.42118  0.62355  Biso   1.000  C
  C104     1.0000 0.55003  0.36870  0.63720  Biso   1.000  C
  C105     1.0000 0.56616  0.34219  0.67918  Biso   1.000  C
  C106     1.0000 0.57163  0.36776  0.70813  Biso   1.000  C
  C107     1.0000 0.56037  0.42007  0.69460  Biso   1.000  C
  C108     1.0000 0.54380  0.44635  0.65307  Biso   1.000  C
  C109     1.0000 0.66123  0.05812  0.96789  Biso   1.000  C
  C110     1.0000 0.71453  0.06206  0.96173  Biso   1.000  C
  C111     1.0000 0.52831  0.10128  0.92226  Biso   1.000  C
  C112     1.0000 0.54505  0.16243  0.87638  Biso   1.000  C
  C113     1.0000 0.50621  0.18724  0.86274  Biso   1.000  C
  C114     1.0000 0.52169  0.24534  0.82070  Biso   1.000  C
  C115     1.0000 0.57620  0.27977  0.79167  Biso   1.000  C
  C116     1.0000 0.61500  0.25502  0.80522  Biso   1.000  C
  C117     1.0000 0.59975  0.19694  0.84683  Biso   1.000  C
  C118     1.0000 0.87096  0.97415  0.96800  Biso   1.000  C
  C119     1.0000 0.82384  0.97642  0.96182  Biso   1.000  C
  C120     1.0000 0.04963  0.97661  0.92222  Biso   1.000  C
  C121     1.0000 0.07878  0.96131  0.87639  Biso   1.000  C
  C122     1.0000 0.13127  0.95014  0.86278  Biso   1.000  C
  C123     1.0000 0.15786  0.93407  0.82076  Biso   1.000  C
  C124     1.0000 0.13239  0.92865  0.79172  Biso   1.000  C
  C125     1.0000 0.08003  0.93981  0.80527  Biso   1.000  C
  C126     1.0000 0.05366  0.95631  0.84685  Biso   1.000  C
  C127     1.0000 0.47281  0.16234  0.46674  Biso   1.000  C
  C128     1.0000 0.47577  0.21548  0.46041  Biso   1.000  C
  C129     1.0000 0.47667  0.02788  0.42243  Biso   1.000  C
  C130     1.0000 0.46133  0.04461  0.37661  Biso   1.000  C
  C131     1.0000 0.45014  0.00581  0.36293  Biso   1.000  C
  C132     1.0000 0.43408  0.02135  0.32088  Biso   1.000  C
  C133     1.0000 0.42869  0.07589  0.29189  Biso   1.000  C
  C134     1.0000 0.43987  0.11462  0.30551  Biso   1.000  C
  C135     1.0000 0.45636  0.09931  0.34711  Biso   1.000  C
  C136     1.0000 0.55783  0.37100  0.46792  Biso   1.000  C
  C137     1.0000 0.56114  0.32393  0.46157  Biso   1.000  C
  C138     1.0000 0.60125  0.54988  0.42230  Biso   1.000  C
  C139     1.0000 0.66239  0.57902  0.37640  Biso   1.000  C
  C140     1.0000 0.68726  0.63153  0.36268  Biso   1.000  C
  C141     1.0000 0.74537  0.65805  0.32060  Biso   1.000  C
  C142     1.0000 0.77975  0.63246  0.29166  Biso   1.000  C
  C143     1.0000 0.75491  0.58013  0.30525  Biso   1.000  C
  C144     1.0000 0.69683  0.55384  0.34688  Biso   1.000  C
  C145     1.0000 0.79740  0.01990  0.96049  Biso   1.000  C
  C146     1.0000 0.74229  0.01989  0.96045  Biso   1.000  C
  C147     1.0000 0.51922  0.24262  0.45963  Biso   1.000  C
  C148     1.0000 0.51921  0.29779  0.45960  Biso   1.000  C
  C149     1.0000 0.25741  0.97910  0.03988  Biso   1.000  C
  C150     1.0000 0.20232  0.97948  0.03972  Biso   1.000  C
  C151     1.0000 0.47960  0.75740  0.54035  Biso   1.000  C
  C152     1.0000 0.48027  0.70225  0.54036  Biso   1.000  C
  C153     1.0000 0.15834  0.34177  0.75001  Biso   1.000  C
  C154     1.0000 0.59150  0.90818  0.75032  Biso   1.000  C
  C155     1.0000 0.84182  0.09170  0.24995  Biso   1.000  C
  C156     1.0000 0.40824  0.65840  0.25004  Biso   1.000  C
  C157     1.0000 0.84183  0.65839  0.24981  Biso   1.000  C
  C158     1.0000 0.40850  0.09179  0.25002  Biso   1.000  C
  C159     1.0000 0.15842  0.90840  0.74991  Biso   1.000  C
  C160     1.0000 0.59198  0.34183  0.74987  Biso   1.000  C
  N1       1.0000 0.89291  0.01373  0.97282  Biso   1.000  N
  N2       1.0000 0.63449  0.01371  0.97270  Biso   1.000  N
  N3       1.0000 0.51410  0.13382  0.47260  Biso   1.000  N
  N4       1.0000 0.51401  0.39367  0.47248  Biso   1.000  N
  N5       1.0000 0.36609  0.98642  0.02742  Biso   1.000  N
  N6       1.0000 0.10698  0.98632  0.02705  Biso   1.000  N
  N7       1.0000 0.48654  0.86615  0.52751  Biso   1.000  N
  N8       1.0000 0.48620  0.60638  0.52746  Biso   1.000  N
  O1       1.0000 0.00241  0.07977  0.93319  Biso   1.000  O
  O2       1.0000 0.07176  0.07106  0.95048  Biso   1.000  O
  O3       1.0000 0.56439  0.98720  0.93321  Biso   1.000  O
  O4       1.0000 0.47768  0.97851  0.95070  Biso   1.000  O
  O5       1.0000 0.57992  0.06412  0.43322  Biso   1.000  O
  O6       1.0000 0.57116  0.97745  0.45071  Biso   1.000  O
  O7       1.0000 0.48719  0.50266  0.43317  Biso   1.000  O
  O8       1.0000 0.47845  0.57186  0.45063  Biso   1.000  O
  O9       1.0000 0.43604  0.92052  0.06672  Biso   1.000  O
  O10      1.0000 0.52272  0.92911  0.04927  Biso   1.000  O
  O11      1.0000 0.99751  0.01297  0.06662  Biso   1.000  O
  O12      1.0000 0.92822  0.02174  0.04925  Biso   1.000  O
  O13      1.0000 0.51307  0.93583  0.56685  Biso   1.000  O
  O14      1.0000 0.52189  0.02250  0.54934  Biso   1.000  O
  O15      1.0000 0.42042  0.49730  0.56671  Biso   1.000  O
  O16      1.0000 0.42913  0.42813  0.54920  Biso   1.000  O
  O17      1.0000 0.99753  0.92041  0.06659  Biso   1.000  O
  O18      1.0000 0.92818  0.92909  0.04932  Biso   1.000  O
  O19      1.0000 0.43611  0.01312  0.06670  Biso   1.000  O
  O20      1.0000 0.52279  0.02179  0.04928  Biso   1.000  O
  O21      1.0000 0.42049  0.93591  0.56678  Biso   1.000  O
  O22      1.0000 0.42925  0.02261  0.54925  Biso   1.000  O
  O23      1.0000 0.51302  0.49746  0.56676  Biso   1.000  O
  O24      1.0000 0.52176  0.42825  0.54931  Biso   1.000  O
  O25      1.0000 0.56454  0.07981  0.93315  Biso   1.000  O
  O26      1.0000 0.47783  0.07117  0.95064  Biso   1.000  O
  O27      1.0000 0.00249  0.98717  0.93314  Biso   1.000  O
  O28      1.0000 0.07176  0.97840  0.95055  Biso   1.000  O
  O29      1.0000 0.48731  0.06413  0.43327  Biso   1.000  O
  O30      1.0000 0.47845  0.97743  0.45081  Biso   1.000  O
  O31      1.0000 0.57981  0.50276  0.43318  Biso   1.000  O
  O32      1.0000 0.57109  0.57193  0.45069  Biso   1.000  O
  O33      1.0000 0.12759  0.37264  0.75014  Biso   1.000  O
  O34      1.0000 0.62215  0.87720  0.75049  Biso   1.000  O
  O35      1.0000 0.87262  0.12252  0.24996  Biso   1.000  O
  O36      1.0000 0.37737  0.62759  0.25009  Biso   1.000  O
  O37      1.0000 0.87262  0.62754  0.24966  Biso   1.000  O
  O38      1.0000 0.37771  0.12264  0.24998  Biso   1.000  O
  O39      1.0000 0.12764  0.87753  0.74993  Biso   1.000  O
  O40      1.0000 0.62279  0.37269  0.74984  Biso   1.000  O
  H65      1.0000 0.88936  0.09048  0.97006  Biso   1.000  H
  H66      1.0000 0.80837  0.09792  0.95933  Biso   1.000  H
  H67      1.0000 0.64085  0.93974  0.96992  Biso   1.000  H
  H68      1.0000 0.73254  0.94307  0.95922  Biso   1.000  H
  H69      1.0000 0.59043  0.14107  0.47031  Biso   1.000  H
  H70      1.0000 0.59699  0.23272  0.45904  Biso   1.000  H
  H71      1.0000 0.43884  0.38984  0.46755  Biso   1.000  H
  H72      1.0000 0.44318  0.30925  0.45652  Biso   1.000  H
  H73      1.0000 0.35708  0.90624  0.03250  Biso   1.000  H
  H74      1.0000 0.26542  0.89998  0.04305  Biso   1.000  H
  H75      1.0000 0.11095  0.06033  0.02968  Biso   1.000  H
  H76      1.0000 0.19159  0.05637  0.04094  Biso   1.000  H
  H77      1.0000 0.56035  0.85929  0.53030  Biso   1.000  H
  H78      1.0000 0.55646  0.76789  0.54139  Biso   1.000  H
  H79      1.0000 0.40964  0.61047  0.53019  Biso   1.000  H
  H80      1.0000 0.40242  0.69078  0.54129  Biso   1.000  H
  H81      1.0000 0.11014  0.90955  0.02984  Biso   1.000  H
  H82      1.0000 0.19085  0.90151  0.04085  Biso   1.000  H
  H83      1.0000 0.35886  0.06033  0.02994  Biso   1.000  H
  H84      1.0000 0.26751  0.05615  0.04055  Biso   1.000  H
  H85      1.0000 0.40683  0.85717  0.53170  Biso   1.000  H
  H86      1.0000 0.40072  0.76534  0.54284  Biso   1.000  H
  H87      1.0000 0.56164  0.61108  0.53182  Biso   1.000  H
  H88      1.0000 0.55661  0.69176  0.54296  Biso   1.000  H
  H89      1.0000 0.64085  0.09056  0.96970  Biso   1.000  H
  H90      1.0000 0.73260  0.09809  0.95891  Biso   1.000  H
  H91      1.0000 0.88950  0.93989  0.96982  Biso   1.000  H
  H92      1.0000 0.80856  0.94319  0.95904  Biso   1.000  H
  H93      1.0000 0.43890  0.14245  0.46774  Biso   1.000  H
  H94      1.0000 0.44316  0.23409  0.45666  Biso   1.000  H
  H95      1.0000 0.59028  0.38876  0.47028  Biso   1.000  H
  H96      1.0000 0.59690  0.30831  0.45913  Biso   1.000  H
  Cu9      1.0000 0.18517  0.01585  0.22743  Biso   1.000  Cu
  Cu10     1.0000 0.18514  0.61391  0.22743  Biso   1.000  Cu
  Cu11     1.0000 0.63651  0.56504  0.72750  Biso   1.000  Cu
  Cu12     1.0000 0.23388  0.56491  0.72743  Biso   1.000  Cu
  Cu13     1.0000 0.17401  0.50519  0.24951  Biso   1.000  Cu
  Cu14     1.0000 0.17429  0.10261  0.24937  Biso   1.000  Cu
  Cu15     1.0000 0.72282  0.55395  0.74960  Biso   1.000  Cu
  Cu16     1.0000 0.12550  0.55383  0.74952  Biso   1.000  Cu
  H97      1.0000 0.13275  0.21063  0.12367  Biso   1.000  H
  H98      1.0000 0.10410  0.25676  0.05067  Biso   1.000  H
  H99      1.0000 0.11539  0.11865  0.02207  Biso   1.000  H
  H100     1.0000 0.14415  0.07238  0.09484  Biso   1.000  H
  H101     1.0000 0.34120  0.52251  0.12385  Biso   1.000  H
  H102     1.0000 0.44288  0.54938  0.05086  Biso   1.000  H
  H103     1.0000 0.46016  0.71607  0.02231  Biso   1.000  H
  H104     1.0000 0.35865  0.68960  0.09501  Biso   1.000  H
  H105     1.0000 0.83140  0.72119  0.62363  Biso   1.000  H
  H106     1.0000 0.87744  0.82289  0.55055  Biso   1.000  H
  H107     1.0000 0.73918  0.83988  0.52219  Biso   1.000  H
  H108     1.0000 0.69305  0.73839  0.59497  Biso   1.000  H
  H109     1.0000 0.14288  0.51240  0.62364  Biso   1.000  H
  H110     1.0000 0.16982  0.48370  0.55063  Biso   1.000  H
  H111     1.0000 0.33644  0.49493  0.52225  Biso   1.000  H
  H112     1.0000 0.30990  0.52372  0.59498  Biso   1.000  H
  H113     1.0000 0.22655  0.59607  0.35342  Biso   1.000  H
  H114     1.0000 0.25520  0.56898  0.42646  Biso   1.000  H
  H115     1.0000 0.24387  0.40241  0.45469  Biso   1.000  H
  H116     1.0000 0.21511  0.42912  0.38191  Biso   1.000  H
  H117     1.0000 0.01789  0.90774  0.35328  Biso   1.000  H
  H118     1.0000 0.91622  0.86171  0.42633  Biso   1.000  H
  H119     1.0000 0.89921  0.99993  0.45474  Biso   1.000  H
  H120     1.0000 0.00072  0.04610  0.38195  Biso   1.000  H
  H121     1.0000 0.52800  0.60629  0.85345  Biso   1.000  H
  H122     1.0000 0.48184  0.63471  0.92668  Biso   1.000  H
  H123     1.0000 0.62009  0.62338  0.95507  Biso   1.000  H
  H124     1.0000 0.66633  0.59486  0.88213  Biso   1.000  H
  H125     1.0000 0.21656  0.39746  0.85337  Biso   1.000  H
  H126     1.0000 0.18942  0.29576  0.92653  Biso   1.000  H
  H127     1.0000 0.02284  0.27891  0.95478  Biso   1.000  H
  H128     1.0000 0.04959  0.38040  0.88191  Biso   1.000  H
  H129     1.0000 0.22663  0.90780  0.35329  Biso   1.000  H
  H130     1.0000 0.25532  0.86179  0.42627  Biso   1.000  H
  H131     1.0000 0.24399  0.99999  0.45471  Biso   1.000  H
  H132     1.0000 0.21518  0.04615  0.38197  Biso   1.000  H
  H133     1.0000 0.01776  0.59629  0.35335  Biso   1.000  H
  H134     1.0000 0.91605  0.56923  0.42643  Biso   1.000  H
  H135     1.0000 0.89906  0.40262  0.45477  Biso   1.000  H
  H136     1.0000 0.00057  0.42928  0.38198  Biso   1.000  H
  H137     1.0000 0.52803  0.39758  0.85324  Biso   1.000  H
  H138     1.0000 0.48198  0.29587  0.92633  Biso   1.000  H
  H139     1.0000 0.62024  0.27886  0.95466  Biso   1.000  H
  H140     1.0000 0.66640  0.38035  0.88188  Biso   1.000  H
  H141     1.0000 0.21640  0.60630  0.85337  Biso   1.000  H
  H142     1.0000 0.18942  0.63502  0.92636  Biso   1.000  H
  H143     1.0000 0.02278  0.62366  0.95477  Biso   1.000  H
  H144     1.0000 0.04938  0.59484  0.88206  Biso   1.000  H
  H145     1.0000 0.13264  0.52284  0.12366  Biso   1.000  H
  H146     1.0000 0.10408  0.54982  0.05056  Biso   1.000  H
  H147     1.0000 0.11544  0.71649  0.02205  Biso   1.000  H
  H148     1.0000 0.14410  0.68990  0.09489  Biso   1.000  H
  H149     1.0000 0.34141  0.21073  0.12370  Biso   1.000  H
  H150     1.0000 0.44308  0.25688  0.05065  Biso   1.000  H
  H151     1.0000 0.46034  0.11874  0.02211  Biso   1.000  H
  H152     1.0000 0.35884  0.07246  0.09490  Biso   1.000  H
  H153     1.0000 0.83122  0.51234  0.62379  Biso   1.000  H
  H154     1.0000 0.87724  0.48374  0.55069  Biso   1.000  H
  H155     1.0000 0.73896  0.49510  0.52239  Biso   1.000  H
  H156     1.0000 0.69283  0.52380  0.59520  Biso   1.000  H
  H157     1.0000 0.14286  0.72122  0.62355  Biso   1.000  H
  H158     1.0000 0.16998  0.82290  0.55038  Biso   1.000  H
  H159     1.0000 0.33657  0.83980  0.52210  Biso   1.000  H
  H160     1.0000 0.30983  0.73832  0.59499  Biso   1.000  H
  C161     1.0000 0.15348  0.93014  0.20665  Biso   1.000  C
  C162     1.0000 0.15574  0.88300  0.20048  Biso   1.000  C
  C163     1.0000 0.15626  0.10884  0.16074  Biso   1.000  C
  C164     1.0000 0.14096  0.13795  0.11488  Biso   1.000  C
  C165     1.0000 0.12979  0.19042  0.10127  Biso   1.000  C
  C166     1.0000 0.11371  0.21700  0.05927  Biso   1.000  C
  C167     1.0000 0.10825  0.19153  0.03025  Biso   1.000  C
  C168     1.0000 0.11944  0.13919  0.04376  Biso   1.000  C
  C169     1.0000 0.13596  0.11282  0.08533  Biso   1.000  C
  C170     1.0000 0.23760  0.72047  0.20654  Biso   1.000  C
  C171     1.0000 0.24146  0.77376  0.20040  Biso   1.000  C
  C172     1.0000 0.28066  0.58737  0.16087  Biso   1.000  C
  C173     1.0000 0.34180  0.60400  0.11505  Biso   1.000  C
  C174     1.0000 0.36655  0.56511  0.10147  Biso   1.000  C
  C175     1.0000 0.42467  0.58052  0.05949  Biso   1.000  C
  C176     1.0000 0.45913  0.63502  0.03052  Biso   1.000  C
  C177     1.0000 0.43442  0.67385  0.04399  Biso   1.000  C
  C178     1.0000 0.37634  0.65867  0.08552  Biso   1.000  C
  C179     1.0000 0.55058  0.61718  0.70650  Biso   1.000  C
  C180     1.0000 0.50355  0.62046  0.70009  Biso   1.000  C
  C181     1.0000 0.72949  0.66057  0.66083  Biso   1.000  C
  C182     1.0000 0.75867  0.72168  0.61493  Biso   1.000  C
  C183     1.0000 0.81115  0.74651  0.60127  Biso   1.000  C
  C184     1.0000 0.83767  0.80462  0.55925  Biso   1.000  C
  C185     1.0000 0.81210  0.83901  0.53028  Biso   1.000  C
  C186     1.0000 0.75977  0.81422  0.54385  Biso   1.000  C
  C187     1.0000 0.73349  0.75614  0.58541  Biso   1.000  C
  C188     1.0000 0.34212  0.53201  0.70510  Biso   1.000  C
  C189     1.0000 0.39525  0.53501  0.69882  Biso   1.000  C
  C190     1.0000 0.20764  0.53589  0.66078  Biso   1.000  C
  C191     1.0000 0.22431  0.52056  0.61495  Biso   1.000  C
  C192     1.0000 0.18548  0.50939  0.60130  Biso   1.000  C
  C193     1.0000 0.20093  0.49327  0.55930  Biso   1.000  C
  C194     1.0000 0.25544  0.48778  0.53034  Biso   1.000  C
  C195     1.0000 0.29422  0.49899  0.54390  Biso   1.000  C
  C196     1.0000 0.27900  0.51554  0.58544  Biso   1.000  C
  C197     1.0000 0.20712  0.39666  0.27174  Biso   1.000  C
  C198     1.0000 0.20416  0.34357  0.27779  Biso   1.000  C
  C199     1.0000 0.20305  0.53149  0.31614  Biso   1.000  C
  C200     1.0000 0.21834  0.51468  0.36201  Biso   1.000  C
  C201     1.0000 0.22952  0.55345  0.37573  Biso   1.000  C
  C202     1.0000 0.24560  0.53791  0.41776  Biso   1.000  C
  C203     1.0000 0.25103  0.48337  0.44671  Biso   1.000  C
  C204     1.0000 0.23982  0.44465  0.43308  Biso   1.000  C
  C205     1.0000 0.22331  0.45998  0.39149  Biso   1.000  C
  C206     1.0000 0.12207  0.18843  0.27029  Biso   1.000  C
  C207     1.0000 0.11829  0.23543  0.27670  Biso   1.000  C
  C208     1.0000 0.07860  0.00962  0.31609  Biso   1.000  C
  C209     1.0000 0.01745  0.98050  0.36196  Biso   1.000  C
  C210     1.0000 0.99260  0.92801  0.37562  Biso   1.000  C
  C211     1.0000 0.93449  0.90149  0.41765  Biso   1.000  C
  C212     1.0000 0.90010  0.92704  0.44663  Biso   1.000  C
  C213     1.0000 0.92489  0.97936  0.43306  Biso   1.000  C
  C214     1.0000 0.98297  0.00567  0.39148  Biso   1.000  C
  C215     1.0000 0.80822  0.58504  0.77091  Biso   1.000  C
  C216     1.0000 0.85525  0.58236  0.77725  Biso   1.000  C
  C217     1.0000 0.62989  0.58287  0.81627  Biso   1.000  C
  C218     1.0000 0.60072  0.59808  0.86217  Biso   1.000  C
  C219     1.0000 0.54823  0.60921  0.87585  Biso   1.000  C
  C220     1.0000 0.52164  0.62519  0.91796  Biso   1.000  C
  C221     1.0000 0.54717  0.63058  0.94696  Biso   1.000  C
  C222     1.0000 0.59953  0.61941  0.93337  Biso   1.000  C
  C223     1.0000 0.62588  0.60300  0.89172  Biso   1.000  C
  C224     1.0000 0.01878  0.50133  0.77085  Biso   1.000  C
  C225     1.0000 0.96542  0.49766  0.77720  Biso   1.000  C
  C226     1.0000 0.15191  0.45822  0.81611  Biso   1.000  C
  C227     1.0000 0.13516  0.39706  0.86199  Biso   1.000  C
  C228     1.0000 0.17394  0.37217  0.87571  Biso   1.000  C
  C229     1.0000 0.15837  0.31406  0.91778  Biso   1.000  C
  C230     1.0000 0.10383  0.27969  0.94672  Biso   1.000  C
  C231     1.0000 0.06511  0.30454  0.93312  Biso   1.000  C
  C232     1.0000 0.08045  0.36263  0.89150  Biso   1.000  C
  C233     1.0000 0.20601  0.18798  0.27038  Biso   1.000  C
  C234     1.0000 0.20392  0.23500  0.27672  Biso   1.000  C
  C235     1.0000 0.20314  0.00961  0.31611  Biso   1.000  C
  C236     1.0000 0.21841  0.98053  0.36199  Biso   1.000  C
  C237     1.0000 0.22959  0.92806  0.37565  Biso   1.000  C
  C238     1.0000 0.24570  0.90154  0.41763  Biso   1.000  C
  C239     1.0000 0.25116  0.92708  0.44660  Biso   1.000  C
  C240     1.0000 0.23993  0.97941  0.43306  Biso   1.000  C
  C241     1.0000 0.22339  0.00571  0.39150  Biso   1.000  C
  C242     1.0000 0.12199  0.39810  0.27055  Biso   1.000  C
  C243     1.0000 0.11875  0.34478  0.27664  Biso   1.000  C
  C244     1.0000 0.07844  0.53160  0.31614  Biso   1.000  C
  C245     1.0000 0.01729  0.51486  0.36202  Biso   1.000  C
  C246     1.0000 0.99244  0.55367  0.37570  Biso   1.000  C
  C247     1.0000 0.93434  0.53814  0.41774  Biso   1.000  C
  C248     1.0000 0.89995  0.48361  0.44671  Biso   1.000  C
  C249     1.0000 0.92474  0.44487  0.43312  Biso   1.000  C
  C250     1.0000 0.98282  0.46016  0.39154  Biso   1.000  C
  C251     1.0000 0.80929  0.49901  0.77149  Biso   1.000  C
  C252     1.0000 0.85614  0.49607  0.77780  Biso   1.000  C
  C253     1.0000 0.62988  0.45830  0.81614  Biso   1.000  C
  C254     1.0000 0.60077  0.39712  0.86193  Biso   1.000  C
  C255     1.0000 0.54830  0.37227  0.87559  Biso   1.000  C
  C256     1.0000 0.52176  0.31415  0.91764  Biso   1.000  C
  C257     1.0000 0.54730  0.27975  0.94663  Biso   1.000  C
  C258     1.0000 0.59965  0.30454  0.93302  Biso   1.000  C
  C259     1.0000 0.62595  0.36263  0.89144  Biso   1.000  C
  C260     1.0000 0.01708  0.58671  0.77155  Biso   1.000  C
  C261     1.0000 0.96390  0.58334  0.77787  Biso   1.000  C
  C262     1.0000 0.15169  0.58280  0.81620  Biso   1.000  C
  C263     1.0000 0.13496  0.59808  0.86207  Biso   1.000  C
  C264     1.0000 0.17379  0.60928  0.87572  Biso   1.000  C
  C265     1.0000 0.15832  0.62541  0.91770  Biso   1.000  C
  C266     1.0000 0.10380  0.63088  0.94665  Biso   1.000  C
  C267     1.0000 0.06502  0.61962  0.93312  Biso   1.000  C
  C268     1.0000 0.08026  0.60305  0.89159  Biso   1.000  C
  C269     1.0000 0.15368  0.72048  0.20641  Biso   1.000  C
  C270     1.0000 0.15590  0.77378  0.20025  Biso   1.000  C
  C271     1.0000 0.15615  0.58756  0.16078  Biso   1.000  C
  C272     1.0000 0.14088  0.60430  0.11490  Biso   1.000  C
  C273     1.0000 0.12971  0.56546  0.10126  Biso   1.000  C
  C274     1.0000 0.11365  0.58094  0.05922  Biso   1.000  C
  C275     1.0000 0.10825  0.63545  0.03019  Biso   1.000  C
  C276     1.0000 0.11945  0.67425  0.04374  Biso   1.000  C
  C277     1.0000 0.13592  0.65900  0.08535  Biso   1.000  C
  C278     1.0000 0.23754  0.93021  0.20652  Biso   1.000  C
  C279     1.0000 0.24145  0.88309  0.20034  Biso   1.000  C
  C280     1.0000 0.28086  0.10888  0.16074  Biso   1.000  C
  C281     1.0000 0.34199  0.13803  0.11491  Biso   1.000  C
  C282     1.0000 0.36676  0.19052  0.10130  Biso   1.000  C
  C283     1.0000 0.42486  0.21711  0.05928  Biso   1.000  C
  C284     1.0000 0.45931  0.19164  0.03024  Biso   1.000  C
  C285     1.0000 0.43460  0.13928  0.04379  Biso   1.000  C
  C286     1.0000 0.37653  0.11291  0.08537  Biso   1.000  C
  C287     1.0000 0.55061  0.53206  0.70526  Biso   1.000  C
  C288     1.0000 0.50380  0.53502  0.69893  Biso   1.000  C
  C289     1.0000 0.72938  0.53592  0.66095  Biso   1.000  C
  C290     1.0000 0.75847  0.52058  0.61513  Biso   1.000  C
  C291     1.0000 0.81095  0.50939  0.60145  Biso   1.000  C
  C292     1.0000 0.83746  0.49333  0.55940  Biso   1.000  C
  C293     1.0000 0.81190  0.48794  0.53041  Biso   1.000  C
  C294     1.0000 0.75956  0.49912  0.54403  Biso   1.000  C
  C295     1.0000 0.73327  0.51561  0.58563  Biso   1.000  C
  C296     1.0000 0.34077  0.61708  0.70644  Biso   1.000  C
  C297     1.0000 0.39419  0.62039  0.70009  Biso   1.000  C
  C298     1.0000 0.20751  0.66050  0.66082  Biso   1.000  C
  C299     1.0000 0.22426  0.72164  0.61492  Biso   1.000  C
  C300     1.0000 0.18547  0.74651  0.60120  Biso   1.000  C
  C301     1.0000 0.20104  0.80462  0.55912  Biso   1.000  C
  C302     1.0000 0.25556  0.83900  0.53018  Biso   1.000  C
  C303     1.0000 0.29431  0.81416  0.54377  Biso   1.000  C
  C304     1.0000 0.27897  0.75608  0.58540  Biso   1.000  C
  C305     1.0000 0.19930  0.85665  0.19901  Biso   1.000  C
  C306     1.0000 0.19935  0.80154  0.19897  Biso   1.000  C
  C307     1.0000 0.47744  0.57847  0.69815  Biso   1.000  C
  C308     1.0000 0.42230  0.57846  0.69812  Biso   1.000  C
  C309     1.0000 0.16070  0.31666  0.27840  Biso   1.000  C
  C310     1.0000 0.16048  0.26157  0.27824  Biso   1.000  C
  C311     1.0000 0.88194  0.53885  0.77887  Biso   1.000  C
  C312     1.0000 0.93708  0.53952  0.77888  Biso   1.000  C
  C313     1.0000 0.08791  0.21759  0.98853  Biso   1.000  C
  C314     1.0000 0.52118  0.65075  0.98884  Biso   1.000  C
  C315     1.0000 0.83804  0.90107  0.48847  Biso   1.000  C
  C316     1.0000 0.27125  0.46749  0.48856  Biso   1.000  C
  C317     1.0000 0.27149  0.90108  0.48833  Biso   1.000  C
  C318     1.0000 0.83788  0.46775  0.48854  Biso   1.000  C
  C319     1.0000 0.52138  0.21767  0.98843  Biso   1.000  C
  C320     1.0000 0.08799  0.65123  0.98839  Biso   1.000  C
  N9       1.0000 0.19314  0.95216  0.21134  Biso   1.000  N
  N10      1.0000 0.19328  0.69374  0.21122  Biso   1.000  N
  N11      1.0000 0.57327  0.57335  0.71112  Biso   1.000  N
  N12      1.0000 0.31354  0.57326  0.71100  Biso   1.000  N
  N13      1.0000 0.16584  0.42534  0.26594  Biso   1.000  N
  N14      1.0000 0.16631  0.16623  0.26557  Biso   1.000  N
  N15      1.0000 0.78602  0.54579  0.76603  Biso   1.000  N
  N16      1.0000 0.04585  0.54545  0.76598  Biso   1.000  N
  O41      1.0000 0.16673  0.06166  0.17171  Biso   1.000  O
  O42      1.0000 0.15815  0.13101  0.18900  Biso   1.000  O
  O43      1.0000 0.25928  0.62364  0.17173  Biso   1.000  O
  O44      1.0000 0.25048  0.53693  0.18922  Biso   1.000  O
  O45      1.0000 0.68235  0.63917  0.67174  Biso   1.000  O
  O46      1.0000 0.75153  0.63041  0.68923  Biso   1.000  O
  O47      1.0000 0.24386  0.54644  0.67169  Biso   1.000  O
  O48      1.0000 0.15719  0.53770  0.68915  Biso   1.000  O
  O49      1.0000 0.19245  0.49529  0.30524  Biso   1.000  O
  O50      1.0000 0.20130  0.58197  0.28779  Biso   1.000  O
  O51      1.0000 0.10010  0.05676  0.30514  Biso   1.000  O
  O52      1.0000 0.10870  0.98747  0.28777  Biso   1.000  O
  O53      1.0000 0.67701  0.57232  0.80537  Biso   1.000  O
  O54      1.0000 0.60785  0.58114  0.78786  Biso   1.000  O
  O55      1.0000 0.11568  0.47967  0.80523  Biso   1.000  O
  O56      1.0000 0.20236  0.48838  0.78772  Biso   1.000  O
  O57      1.0000 0.19268  0.05678  0.30511  Biso   1.000  O
  O58      1.0000 0.20128  0.98743  0.28784  Biso   1.000  O
  O59      1.0000 0.09986  0.49536  0.30522  Biso   1.000  O
  O60      1.0000 0.10861  0.58204  0.28780  Biso   1.000  O
  O61      1.0000 0.67699  0.47974  0.80530  Biso   1.000  O
  O62      1.0000 0.60783  0.48850  0.78777  Biso   1.000  O
  O63      1.0000 0.11547  0.57227  0.80528  Biso   1.000  O
  O64      1.0000 0.20213  0.58101  0.78783  Biso   1.000  O
  O65      1.0000 0.16673  0.62379  0.17167  Biso   1.000  O
  O66      1.0000 0.15788  0.53708  0.18916  Biso   1.000  O
  O67      1.0000 0.25938  0.06174  0.17166  Biso   1.000  O
  O68      1.0000 0.25074  0.13101  0.18907  Biso   1.000  O
  O69      1.0000 0.68229  0.54656  0.67179  Biso   1.000  O
  O70      1.0000 0.75144  0.53770  0.68933  Biso   1.000  O
  O71      1.0000 0.24374  0.63906  0.67170  Biso   1.000  O
  O72      1.0000 0.15706  0.63034  0.68921  Biso   1.000  O
  O73      1.0000 0.05691  0.18684  0.98866  Biso   1.000  O
  O74      1.0000 0.55200  0.68140  0.98901  Biso   1.000  O
  O75      1.0000 0.80721  0.93187  0.48848  Biso   1.000  O
  O76      1.0000 0.30200  0.43662  0.48861  Biso   1.000  O
  O77      1.0000 0.30249  0.93187  0.48818  Biso   1.000  O
  O78      1.0000 0.80707  0.43696  0.48850  Biso   1.000  O
  O79      1.0000 0.55223  0.18689  0.98845  Biso   1.000  O
  O80      1.0000 0.05716  0.68204  0.98836  Biso   1.000  O
  H161     1.0000 0.11915  0.94861  0.20858  Biso   1.000  H
  H162     1.0000 0.12244  0.86762  0.19785  Biso   1.000  H
  H163     1.0000 0.27003  0.70010  0.20844  Biso   1.000  H
  H164     1.0000 0.27740  0.79179  0.19774  Biso   1.000  H
  H165     1.0000 0.56831  0.64968  0.70883  Biso   1.000  H
  H166     1.0000 0.48792  0.65624  0.69756  Biso   1.000  H
  H167     1.0000 0.32230  0.49809  0.70607  Biso   1.000  H
  H168     1.0000 0.41392  0.50243  0.69504  Biso   1.000  H
  H169     1.0000 0.24094  0.41633  0.27102  Biso   1.000  H
  H170     1.0000 0.23665  0.32467  0.28157  Biso   1.000  H
  H171     1.0000 0.08967  0.17020  0.26820  Biso   1.000  H
  H172     1.0000 0.08237  0.25084  0.27946  Biso   1.000  H
  H173     1.0000 0.79009  0.61960  0.76882  Biso   1.000  H
  H174     1.0000 0.87041  0.61571  0.77991  Biso   1.000  H
  H175     1.0000 0.03903  0.46889  0.76871  Biso   1.000  H
  H176     1.0000 0.94762  0.46167  0.77981  Biso   1.000  H
  H177     1.0000 0.24029  0.16939  0.26836  Biso   1.000  H
  H178     1.0000 0.23732  0.25010  0.27937  Biso   1.000  H
  H179     1.0000 0.08941  0.41811  0.26846  Biso   1.000  H
  H180     1.0000 0.08298  0.32676  0.27907  Biso   1.000  H
  H181     1.0000 0.79082  0.46608  0.77022  Biso   1.000  H
  H182     1.0000 0.87150  0.45997  0.78136  Biso   1.000  H
  H183     1.0000 0.03679  0.62089  0.77034  Biso   1.000  H
  H184     1.0000 0.94496  0.61586  0.78148  Biso   1.000  H
  H185     1.0000 0.11943  0.70010  0.20822  Biso   1.000  H
  H186     1.0000 0.12269  0.79185  0.19743  Biso   1.000  H
  H187     1.0000 0.26998  0.94875  0.20834  Biso   1.000  H
  H188     1.0000 0.27746  0.86781  0.19756  Biso   1.000  H
  H189     1.0000 0.56950  0.49815  0.70626  Biso   1.000  H
  H190     1.0000 0.48894  0.50241  0.69518  Biso   1.000  H
  H191     1.0000 0.32065  0.64953  0.70880  Biso   1.000  H
  H192     1.0000 0.41225  0.65615  0.69765  Biso   1.000  H
