data_image0
_cell_length_a       18.3127
_cell_length_b       18.3127
_cell_length_c       18.3127
_cell_angle_alpha    60
_cell_angle_beta     60
_cell_angle_gamma    60

_symmetry_space_group_name_H-M    "P 1"
_symmetry_int_tables_number       1

loop_
  _symmetry_equiv_pos_as_xyz
  'x, y, z'

loop_
  _atom_site_label
  _atom_site_occupancy
  _atom_site_fract_x
  _atom_site_fract_y
  _atom_site_fract_z
  _atom_site_thermal_displace_type
  _atom_site_B_iso_or_equiv
  _atom_site_type_symbol
  C1       1.0000 0.20666  0.38001  0.20666  Biso   1.000  C
  C2       1.0000 0.38001  0.20666  0.20666  Biso   1.000  C
  C3       1.0000 0.20667  0.20666  0.20666  Biso   1.000  C
  C4       1.0000 0.20667  0.20666  0.38001  Biso   1.000  C
  C5       1.0000 0.61999  0.79334  0.79334  Biso   1.000  C
  C6       1.0000 0.79334  0.61999  0.79333  Biso   1.000  C
  C7       1.0000 0.79334  0.79333  0.79334  Biso   1.000  C
  C8       1.0000 0.79334  0.79333  0.61999  Biso   1.000  C
  C9       1.0000 0.04520  0.56580  0.04520  Biso   1.000  C
  C10      1.0000 0.56580  0.04520  0.34380  Biso   1.000  C
  C11      1.0000 0.04520  0.34380  0.04520  Biso   1.000  C
  C12      1.0000 0.34380  0.04520  0.56580  Biso   1.000  C
  C13      1.0000 0.04520  0.04520  0.34380  Biso   1.000  C
  C14      1.0000 0.56580  0.34380  0.04520  Biso   1.000  C
  C15      1.0000 0.04520  0.04520  0.56580  Biso   1.000  C
  C16      1.0000 0.34380  0.56580  0.04520  Biso   1.000  C
  C17      1.0000 0.04520  0.34380  0.56580  Biso   1.000  C
  C18      1.0000 0.56580  0.04520  0.04520  Biso   1.000  C
  C19      1.0000 0.04520  0.56580  0.34380  Biso   1.000  C
  C20      1.0000 0.34380  0.04520  0.04520  Biso   1.000  C
  C21      1.0000 0.43420  0.95480  0.95480  Biso   1.000  C
  C22      1.0000 0.95480  0.43420  0.65620  Biso   1.000  C
  C23      1.0000 0.65620  0.95480  0.95480  Biso   1.000  C
  C24      1.0000 0.95480  0.65620  0.43420  Biso   1.000  C
  C25      1.0000 0.95480  0.95480  0.65620  Biso   1.000  C
  C26      1.0000 0.65620  0.43420  0.95480  Biso   1.000  C
  C27      1.0000 0.95480  0.95480  0.43420  Biso   1.000  C
  C28      1.0000 0.43420  0.65620  0.95480  Biso   1.000  C
  C29      1.0000 0.65620  0.95480  0.43420  Biso   1.000  C
  C30      1.0000 0.95480  0.43420  0.95480  Biso   1.000  C
  C31      1.0000 0.43420  0.95480  0.65620  Biso   1.000  C
  C32      1.0000 0.95480  0.65620  0.95480  Biso   1.000  C
  C33      1.0000 0.02688  0.53930  0.02688  Biso   1.000  C
  C34      1.0000 0.53930  0.02688  0.40694  Biso   1.000  C
  C35      1.0000 0.02688  0.40694  0.02688  Biso   1.000  C
  C36      1.0000 0.40694  0.02688  0.53930  Biso   1.000  C
  C37      1.0000 0.02688  0.02688  0.40694  Biso   1.000  C
  C38      1.0000 0.53930  0.40694  0.02688  Biso   1.000  C
  C39      1.0000 0.02688  0.02688  0.53930  Biso   1.000  C
  C40      1.0000 0.40694  0.53930  0.02688  Biso   1.000  C
  C41      1.0000 0.02688  0.40694  0.53930  Biso   1.000  C
  C42      1.0000 0.53930  0.02688  0.02688  Biso   1.000  C
  C43      1.0000 0.02688  0.53930  0.40694  Biso   1.000  C
  C44      1.0000 0.40694  0.02688  0.02688  Biso   1.000  C
  C45      1.0000 0.46070  0.97312  0.97312  Biso   1.000  C
  C46      1.0000 0.97312  0.46070  0.59306  Biso   1.000  C
  C47      1.0000 0.59306  0.97312  0.97312  Biso   1.000  C
  C48      1.0000 0.97312  0.59306  0.46070  Biso   1.000  C
  C49      1.0000 0.97312  0.97312  0.59306  Biso   1.000  C
  C50      1.0000 0.59306  0.46070  0.97312  Biso   1.000  C
  C51      1.0000 0.97312  0.97312  0.46070  Biso   1.000  C
  C52      1.0000 0.46070  0.59306  0.97312  Biso   1.000  C
  C53      1.0000 0.59306  0.97312  0.46070  Biso   1.000  C
  C54      1.0000 0.97312  0.46070  0.97312  Biso   1.000  C
  C55      1.0000 0.46070  0.97312  0.59306  Biso   1.000  C
  C56      1.0000 0.97312  0.59306  0.97312  Biso   1.000  C
  C57      1.0000 0.11142  0.38858  0.11142  Biso   1.000  C
  C58      1.0000 0.05381  0.44619  0.05381  Biso   1.000  C
  C59      1.0000 0.38858  0.11142  0.38858  Biso   1.000  C
  C60      1.0000 0.44619  0.05381  0.44619  Biso   1.000  C
  C61      1.0000 0.11142  0.11142  0.38858  Biso   1.000  C
  C62      1.0000 0.05381  0.05381  0.44619  Biso   1.000  C
  C63      1.0000 0.38858  0.38858  0.11142  Biso   1.000  C
  C64      1.0000 0.44619  0.44619  0.05381  Biso   1.000  C
  C65      1.0000 0.11142  0.38858  0.38858  Biso   1.000  C
  C66      1.0000 0.05381  0.44619  0.44619  Biso   1.000  C
  C67      1.0000 0.38858  0.11142  0.11142  Biso   1.000  C
  C68      1.0000 0.44619  0.05381  0.05381  Biso   1.000  C
  C69      1.0000 0.61142  0.88858  0.88858  Biso   1.000  C
  C70      1.0000 0.55381  0.94619  0.94619  Biso   1.000  C
  C71      1.0000 0.88858  0.61142  0.61142  Biso   1.000  C
  C72      1.0000 0.94619  0.55381  0.55381  Biso   1.000  C
  C73      1.0000 0.88858  0.88858  0.61142  Biso   1.000  C
  C74      1.0000 0.94619  0.94619  0.55381  Biso   1.000  C
  C75      1.0000 0.61142  0.61142  0.88858  Biso   1.000  C
  C76      1.0000 0.55381  0.55381  0.94619  Biso   1.000  C
  C77      1.0000 0.61142  0.88858  0.61142  Biso   1.000  C
  C78      1.0000 0.55381  0.94619  0.55381  Biso   1.000  C
  C79      1.0000 0.88858  0.61142  0.88858  Biso   1.000  C
  C80      1.0000 0.94619  0.55381  0.94619  Biso   1.000  C
  C81      1.0000 0.25000  0.25000  0.25000  Biso   1.000  C
  C82      1.0000 0.75000  0.75000  0.75000  Biso   1.000  C
  C83      1.0000 0.13369  0.42773  0.13369  Biso   1.000  C
  C84      1.0000 0.42773  0.13369  0.30489  Biso   1.000  C
  C85      1.0000 0.13369  0.30489  0.13369  Biso   1.000  C
  C86      1.0000 0.30489  0.13369  0.42773  Biso   1.000  C
  C87      1.0000 0.13369  0.13369  0.30489  Biso   1.000  C
  C88      1.0000 0.42773  0.30489  0.13369  Biso   1.000  C
  C89      1.0000 0.13369  0.13369  0.42773  Biso   1.000  C
  C90      1.0000 0.30489  0.42773  0.13369  Biso   1.000  C
  C91      1.0000 0.13369  0.30489  0.42773  Biso   1.000  C
  C92      1.0000 0.42773  0.13369  0.13369  Biso   1.000  C
  C93      1.0000 0.13369  0.42773  0.30489  Biso   1.000  C
  C94      1.0000 0.30489  0.13369  0.13369  Biso   1.000  C
  C95      1.0000 0.57227  0.86631  0.86631  Biso   1.000  C
  C96      1.0000 0.86631  0.57227  0.69511  Biso   1.000  C
  C97      1.0000 0.69511  0.86631  0.86631  Biso   1.000  C
  C98      1.0000 0.86631  0.69511  0.57227  Biso   1.000  C
  C99      1.0000 0.86631  0.86631  0.69511  Biso   1.000  C
  C100     1.0000 0.69511  0.57227  0.86631  Biso   1.000  C
  C101     1.0000 0.86631  0.86631  0.57227  Biso   1.000  C
  C102     1.0000 0.57227  0.69511  0.86631  Biso   1.000  C
  C103     1.0000 0.69511  0.86631  0.57227  Biso   1.000  C
  C104     1.0000 0.86631  0.57227  0.86631  Biso   1.000  C
  C105     1.0000 0.57227  0.86631  0.69511  Biso   1.000  C
  C106     1.0000 0.86631  0.69511  0.86631  Biso   1.000  C
  O1       1.0000 1.00000  1.00000  1.00000  Biso   1.000  O
  O2       1.0000 0.00000  1.00000  0.17342  Biso   1.000  O
  O3       1.0000 0.82658  1.00000  0.17342  Biso   1.000  O
  O4       1.0000 1.00000  0.82658  0.17342  Biso   1.000  O
  O5       1.0000 0.41239  0.41241  0.75925  Biso   1.000  O
  O6       1.0000 0.41239  0.41241  0.58583  Biso   1.000  O
  O7       1.0000 0.41239  0.58583  0.58583  Biso   1.000  O
  O8       1.0000 0.58581  0.41241  0.58583  Biso   1.000  O
  O9       1.0000 0.16147  0.16148  0.81366  Biso   1.000  O
  O10      1.0000 0.16147  0.16148  0.03504  Biso   1.000  O
  O11      1.0000 0.64023  0.86162  0.33491  Biso   1.000  O
  O12      1.0000 0.86161  0.64024  0.33491  Biso   1.000  O
  O13      1.0000 0.16147  0.64024  0.03504  Biso   1.000  O
  O14      1.0000 0.16147  0.86162  0.81366  Biso   1.000  O
  O15      1.0000 0.64023  0.16148  0.33491  Biso   1.000  O
  O16      1.0000 0.86161  0.16148  0.33491  Biso   1.000  O
  O17      1.0000 0.16147  0.86162  0.33491  Biso   1.000  O
  O18      1.0000 0.16147  0.64024  0.33491  Biso   1.000  O
  O19      1.0000 0.64023  0.16148  0.03504  Biso   1.000  O
  O20      1.0000 0.86161  0.16148  0.81366  Biso   1.000  O
  O21      1.0000 0.25092  0.25093  0.94560  Biso   1.000  O
  O22      1.0000 0.25092  0.25093  0.72422  Biso   1.000  O
  O23      1.0000 0.55078  0.77217  0.42435  Biso   1.000  O
  O24      1.0000 0.77216  0.55079  0.42435  Biso   1.000  O
  O25      1.0000 0.77216  0.25093  0.72422  Biso   1.000  O
  O26      1.0000 0.55078  0.25093  0.94560  Biso   1.000  O
  O27      1.0000 0.25092  0.77217  0.42435  Biso   1.000  O
  O28      1.0000 0.25092  0.55079  0.42435  Biso   1.000  O
  O29      1.0000 0.55078  0.25093  0.42435  Biso   1.000  O
  O30      1.0000 0.77216  0.25093  0.42435  Biso   1.000  O
  O31      1.0000 0.25092  0.77217  0.72422  Biso   1.000  O
  O32      1.0000 0.25092  0.55079  0.94560  Biso   1.000  O
  O33      1.0000 0.17963  0.17964  0.84056  Biso   1.000  O
  O34      1.0000 0.17963  0.17964  0.97182  Biso   1.000  O
  O35      1.0000 0.66713  0.79840  0.35306  Biso   1.000  O
  O36      1.0000 0.79839  0.66714  0.35306  Biso   1.000  O
  O37      1.0000 0.17963  0.66714  0.97182  Biso   1.000  O
  O38      1.0000 0.17963  0.79840  0.84056  Biso   1.000  O
  O39      1.0000 0.66713  0.17964  0.35306  Biso   1.000  O
  O40      1.0000 0.79839  0.17964  0.35306  Biso   1.000  O
  O41      1.0000 0.17963  0.79840  0.35306  Biso   1.000  O
  O42      1.0000 0.17963  0.66714  0.35306  Biso   1.000  O
  O43      1.0000 0.66713  0.17964  0.97182  Biso   1.000  O
  O44      1.0000 0.79839  0.17964  0.84056  Biso   1.000  O
  O45      1.0000 0.23276  0.23277  0.91869  Biso   1.000  O
  O46      1.0000 0.23276  0.23277  0.78743  Biso   1.000  O
  O47      1.0000 0.61400  0.74527  0.40619  Biso   1.000  O
  O48      1.0000 0.74526  0.61401  0.40619  Biso   1.000  O
  O49      1.0000 0.74526  0.23277  0.78743  Biso   1.000  O
  O50      1.0000 0.61400  0.23277  0.91869  Biso   1.000  O
  O51      1.0000 0.23276  0.74527  0.40619  Biso   1.000  O
  O52      1.0000 0.23276  0.61401  0.40619  Biso   1.000  O
  O53      1.0000 0.61400  0.23277  0.40619  Biso   1.000  O
  O54      1.0000 0.74526  0.23277  0.40619  Biso   1.000  O
  O55      1.0000 0.23276  0.74527  0.78743  Biso   1.000  O
  O56      1.0000 0.23276  0.61401  0.91869  Biso   1.000  O
  O57      1.0000 0.09479  0.09480  0.99191  Biso   1.000  O
  O58      1.0000 0.15266  0.15267  0.93405  Biso   1.000  O
  O59      1.0000 0.81848  0.81849  0.26822  Biso   1.000  O
  O60      1.0000 0.76061  0.76062  0.32609  Biso   1.000  O
  O61      1.0000 0.09479  0.81849  0.99191  Biso   1.000  O
  O62      1.0000 0.15266  0.76062  0.93405  Biso   1.000  O
  O63      1.0000 0.81848  0.09480  0.26822  Biso   1.000  O
  O64      1.0000 0.76061  0.15267  0.32609  Biso   1.000  O
  O65      1.0000 0.09479  0.81849  0.26822  Biso   1.000  O
  O66      1.0000 0.15266  0.76062  0.32609  Biso   1.000  O
  O67      1.0000 0.81848  0.09480  0.99191  Biso   1.000  O
  O68      1.0000 0.76061  0.15267  0.93405  Biso   1.000  O
  O69      1.0000 0.31760  0.31761  0.76734  Biso   1.000  O
  O70      1.0000 0.25973  0.25974  0.82521  Biso   1.000  O
  O71      1.0000 0.59391  0.59392  0.49103  Biso   1.000  O
  O72      1.0000 0.65178  0.65179  0.43316  Biso   1.000  O
  O73      1.0000 0.59391  0.31761  0.76734  Biso   1.000  O
  O74      1.0000 0.65178  0.25974  0.82521  Biso   1.000  O
  O75      1.0000 0.31760  0.59392  0.49103  Biso   1.000  O
  O76      1.0000 0.25973  0.65179  0.43316  Biso   1.000  O
  O77      1.0000 0.59391  0.31761  0.49103  Biso   1.000  O
  O78      1.0000 0.65178  0.25974  0.43316  Biso   1.000  O
  O79      1.0000 0.31760  0.59392  0.76734  Biso   1.000  O
  O80      1.0000 0.25973  0.65179  0.82521  Biso   1.000  O
  O81      1.0000 0.95664  0.95665  0.13007  Biso   1.000  O
  O82      1.0000 0.45575  0.45576  0.62919  Biso   1.000  O
  O83      1.0000 0.07256  0.07257  0.95319  Biso   1.000  O
  O84      1.0000 0.07256  0.07257  0.07510  Biso   1.000  O
  O85      1.0000 0.77976  0.90167  0.24599  Biso   1.000  O
  O86      1.0000 0.90166  0.77977  0.24599  Biso   1.000  O
  O87      1.0000 0.07256  0.77977  0.07510  Biso   1.000  O
  O88      1.0000 0.07256  0.90167  0.95319  Biso   1.000  O
  O89      1.0000 0.77976  0.07257  0.24599  Biso   1.000  O
  O90      1.0000 0.90166  0.07257  0.24599  Biso   1.000  O
  O91      1.0000 0.07256  0.90167  0.24599  Biso   1.000  O
  O92      1.0000 0.07256  0.77977  0.24599  Biso   1.000  O
  O93      1.0000 0.77976  0.07257  0.07510  Biso   1.000  O
  O94      1.0000 0.90166  0.07257  0.95319  Biso   1.000  O
  O95      1.0000 0.33983  0.33984  0.80606  Biso   1.000  O
  O96      1.0000 0.33983  0.33984  0.68416  Biso   1.000  O
  O97      1.0000 0.51073  0.63264  0.51326  Biso   1.000  O
  O98      1.0000 0.63263  0.51074  0.51326  Biso   1.000  O
  O99      1.0000 0.63263  0.33984  0.68416  Biso   1.000  O
  O100     1.0000 0.51073  0.33984  0.80606  Biso   1.000  O
  O101     1.0000 0.33983  0.63264  0.51326  Biso   1.000  O
  O102     1.0000 0.33983  0.51074  0.51326  Biso   1.000  O
  O103     1.0000 0.51073  0.33984  0.51326  Biso   1.000  O
  O104     1.0000 0.63263  0.33984  0.51326  Biso   1.000  O
  O105     1.0000 0.33983  0.63264  0.68416  Biso   1.000  O
  O106     1.0000 0.33983  0.51074  0.80606  Biso   1.000  O
