data_image0
_cell_length_a       18.2943
_cell_length_b       18.2943
_cell_length_c       18.2943
_cell_angle_alpha    60
_cell_angle_beta     60
_cell_angle_gamma    60

_symmetry_space_group_name_H-M    "P 1"
_symmetry_int_tables_number       1

loop_
  _symmetry_equiv_pos_as_xyz
  'x, y, z'

loop_
  _atom_site_label
  _atom_site_occupancy
  _atom_site_fract_x
  _atom_site_fract_y
  _atom_site_fract_z
  _atom_site_thermal_displace_type
  _atom_site_B_iso_or_equiv
  _atom_site_type_symbol
  C1       1.0000 0.20660  0.38020  0.20660  Biso   1.000  C
  C2       1.0000 0.38020  0.20660  0.20660  Biso   1.000  C
  C3       1.0000 0.20660  0.20660  0.20660  Biso   1.000  C
  C4       1.0000 0.20660  0.20660  0.38020  Biso   1.000  C
  C5       1.0000 0.61980  0.79340  0.79340  Biso   1.000  C
  C6       1.0000 0.79340  0.61980  0.79340  Biso   1.000  C
  C7       1.0000 0.79340  0.79340  0.79340  Biso   1.000  C
  C8       1.0000 0.79340  0.79340  0.61980  Biso   1.000  C
  C9       1.0000 0.04510  0.56550  0.04510  Biso   1.000  C
  C10      1.0000 0.56550  0.04510  0.34430  Biso   1.000  C
  C11      1.0000 0.04510  0.34430  0.04510  Biso   1.000  C
  C12      1.0000 0.34430  0.04510  0.56550  Biso   1.000  C
  C13      1.0000 0.04510  0.04510  0.34430  Biso   1.000  C
  C14      1.0000 0.56550  0.34430  0.04510  Biso   1.000  C
  C15      1.0000 0.04510  0.04510  0.56550  Biso   1.000  C
  C16      1.0000 0.34430  0.56550  0.04510  Biso   1.000  C
  C17      1.0000 0.04510  0.34430  0.56550  Biso   1.000  C
  C18      1.0000 0.56550  0.04510  0.04510  Biso   1.000  C
  C19      1.0000 0.04510  0.56550  0.34430  Biso   1.000  C
  C20      1.0000 0.34430  0.04510  0.04510  Biso   1.000  C
  C21      1.0000 0.43450  0.95490  0.95490  Biso   1.000  C
  C22      1.0000 0.95490  0.43450  0.65570  Biso   1.000  C
  C23      1.0000 0.65570  0.95490  0.95490  Biso   1.000  C
  C24      1.0000 0.95490  0.65570  0.43450  Biso   1.000  C
  C25      1.0000 0.95490  0.95490  0.65570  Biso   1.000  C
  C26      1.0000 0.65570  0.43450  0.95490  Biso   1.000  C
  C27      1.0000 0.95490  0.95490  0.43450  Biso   1.000  C
  C28      1.0000 0.43450  0.65570  0.95490  Biso   1.000  C
  C29      1.0000 0.65570  0.95490  0.43450  Biso   1.000  C
  C30      1.0000 0.95490  0.43450  0.95490  Biso   1.000  C
  C31      1.0000 0.43450  0.95490  0.65570  Biso   1.000  C
  C32      1.0000 0.95490  0.65570  0.95490  Biso   1.000  C
  C33      1.0000 0.02675  0.53889  0.02675  Biso   1.000  C
  C34      1.0000 0.53889  0.02675  0.40761  Biso   1.000  C
  C35      1.0000 0.02675  0.40761  0.02675  Biso   1.000  C
  C36      1.0000 0.40761  0.02675  0.53889  Biso   1.000  C
  C37      1.0000 0.02675  0.02675  0.40761  Biso   1.000  C
  C38      1.0000 0.53889  0.40761  0.02675  Biso   1.000  C
  C39      1.0000 0.02675  0.02675  0.53889  Biso   1.000  C
  C40      1.0000 0.40761  0.53889  0.02675  Biso   1.000  C
  C41      1.0000 0.02675  0.40761  0.53889  Biso   1.000  C
  C42      1.0000 0.53889  0.02675  0.02675  Biso   1.000  C
  C43      1.0000 0.02675  0.53889  0.40761  Biso   1.000  C
  C44      1.0000 0.40761  0.02675  0.02675  Biso   1.000  C
  C45      1.0000 0.46111  0.97325  0.97325  Biso   1.000  C
  C46      1.0000 0.97325  0.46111  0.59239  Biso   1.000  C
  C47      1.0000 0.59239  0.97325  0.97325  Biso   1.000  C
  C48      1.0000 0.97325  0.59239  0.46111  Biso   1.000  C
  C49      1.0000 0.97325  0.97325  0.59239  Biso   1.000  C
  C50      1.0000 0.59239  0.46111  0.97325  Biso   1.000  C
  C51      1.0000 0.97325  0.97325  0.46111  Biso   1.000  C
  C52      1.0000 0.46111  0.59239  0.97325  Biso   1.000  C
  C53      1.0000 0.59239  0.97325  0.46111  Biso   1.000  C
  C54      1.0000 0.97325  0.46111  0.97325  Biso   1.000  C
  C55      1.0000 0.46111  0.97325  0.59239  Biso   1.000  C
  C56      1.0000 0.97325  0.59239  0.97325  Biso   1.000  C
  C57      1.0000 0.11147  0.38853  0.11147  Biso   1.000  C
  C58      1.0000 0.05374  0.44626  0.05374  Biso   1.000  C
  C59      1.0000 0.38853  0.11147  0.38853  Biso   1.000  C
  C60      1.0000 0.44626  0.05374  0.44626  Biso   1.000  C
  C61      1.0000 0.11147  0.11147  0.38853  Biso   1.000  C
  C62      1.0000 0.05374  0.05374  0.44626  Biso   1.000  C
  C63      1.0000 0.38853  0.38853  0.11147  Biso   1.000  C
  C64      1.0000 0.44626  0.44626  0.05374  Biso   1.000  C
  C65      1.0000 0.11147  0.38853  0.38853  Biso   1.000  C
  C66      1.0000 0.05374  0.44626  0.44626  Biso   1.000  C
  C67      1.0000 0.38853  0.11147  0.11147  Biso   1.000  C
  C68      1.0000 0.44626  0.05374  0.05374  Biso   1.000  C
  C69      1.0000 0.61147  0.88853  0.88853  Biso   1.000  C
  C70      1.0000 0.55374  0.94626  0.94626  Biso   1.000  C
  C71      1.0000 0.88853  0.61147  0.61147  Biso   1.000  C
  C72      1.0000 0.94626  0.55374  0.55374  Biso   1.000  C
  C73      1.0000 0.88853  0.88853  0.61147  Biso   1.000  C
  C74      1.0000 0.94626  0.94626  0.55374  Biso   1.000  C
  C75      1.0000 0.61147  0.61147  0.88853  Biso   1.000  C
  C76      1.0000 0.55374  0.55374  0.94626  Biso   1.000  C
  C77      1.0000 0.61147  0.88853  0.61147  Biso   1.000  C
  C78      1.0000 0.55374  0.94626  0.55374  Biso   1.000  C
  C79      1.0000 0.88853  0.61147  0.88853  Biso   1.000  C
  C80      1.0000 0.94626  0.55374  0.94626  Biso   1.000  C
  C81      1.0000 0.25000  0.25000  0.25000  Biso   1.000  C
  C82      1.0000 0.75000  0.75000  0.75000  Biso   1.000  C
  C83      1.0000 0.13372  0.42764  0.13372  Biso   1.000  C
  C84      1.0000 0.42764  0.13372  0.30492  Biso   1.000  C
  C85      1.0000 0.13372  0.30492  0.13372  Biso   1.000  C
  C86      1.0000 0.30492  0.13372  0.42764  Biso   1.000  C
  C87      1.0000 0.13372  0.13372  0.30492  Biso   1.000  C
  C88      1.0000 0.42764  0.30492  0.13372  Biso   1.000  C
  C89      1.0000 0.13372  0.13372  0.42764  Biso   1.000  C
  C90      1.0000 0.30492  0.42764  0.13372  Biso   1.000  C
  C91      1.0000 0.13372  0.30492  0.42764  Biso   1.000  C
  C92      1.0000 0.42764  0.13372  0.13372  Biso   1.000  C
  C93      1.0000 0.13372  0.42764  0.30492  Biso   1.000  C
  C94      1.0000 0.30492  0.13372  0.13372  Biso   1.000  C
  C95      1.0000 0.57236  0.86628  0.86628  Biso   1.000  C
  C96      1.0000 0.86628  0.57236  0.69508  Biso   1.000  C
  C97      1.0000 0.69508  0.86628  0.86628  Biso   1.000  C
  C98      1.0000 0.86628  0.69508  0.57236  Biso   1.000  C
  C99      1.0000 0.86628  0.86628  0.69508  Biso   1.000  C
  C100     1.0000 0.69508  0.57236  0.86628  Biso   1.000  C
  C101     1.0000 0.86628  0.86628  0.57236  Biso   1.000  C
  C102     1.0000 0.57236  0.69508  0.86628  Biso   1.000  C
  C103     1.0000 0.69508  0.86628  0.57236  Biso   1.000  C
  C104     1.0000 0.86628  0.57236  0.86628  Biso   1.000  C
  C105     1.0000 0.57236  0.86628  0.69508  Biso   1.000  C
  C106     1.0000 0.86628  0.69508  0.86628  Biso   1.000  C
  O1       1.0000 1.00000  0.00000  1.00000  Biso   1.000  O
  O2       1.0000 0.00000  1.00000  0.17184  Biso   1.000  O
  O3       1.0000 0.82816  1.00000  0.17184  Biso   1.000  O
  O4       1.0000 1.00000  0.82816  0.17184  Biso   1.000  O
  O5       1.0000 0.42233  0.42235  0.76603  Biso   1.000  O
  O6       1.0000 0.42233  0.42235  0.59419  Biso   1.000  O
  O7       1.0000 0.42233  0.59419  0.59419  Biso   1.000  O
  O8       1.0000 0.59417  0.42235  0.59419  Biso   1.000  O
  O9       1.0000 0.86449  0.15914  0.81722  Biso   1.000  O
  O10      1.0000 0.15913  0.86450  0.33098  Biso   1.000  O
  O11      1.0000 0.64537  0.15914  0.03634  Biso   1.000  O
  O12      1.0000 0.15913  0.64538  0.33098  Biso   1.000  O
  O13      1.0000 0.86449  0.64538  0.33098  Biso   1.000  O
  O14      1.0000 0.15913  0.15914  0.81722  Biso   1.000  O
  O15      1.0000 0.64537  0.86450  0.33098  Biso   1.000  O
  O16      1.0000 0.15913  0.15914  0.03634  Biso   1.000  O
  O17      1.0000 0.86449  0.15914  0.33098  Biso   1.000  O
  O18      1.0000 0.15913  0.64538  0.03634  Biso   1.000  O
  O19      1.0000 0.64537  0.15914  0.33098  Biso   1.000  O
  O20      1.0000 0.15913  0.86450  0.81722  Biso   1.000  O
  O21      1.0000 0.26320  0.55785  0.94881  Biso   1.000  O
  O22      1.0000 0.55785  0.26321  0.43505  Biso   1.000  O
  O23      1.0000 0.26320  0.77697  0.72970  Biso   1.000  O
  O24      1.0000 0.77696  0.26321  0.43505  Biso   1.000  O
  O25      1.0000 0.77696  0.55785  0.43505  Biso   1.000  O
  O26      1.0000 0.26320  0.26321  0.94881  Biso   1.000  O
  O27      1.0000 0.55785  0.77697  0.43505  Biso   1.000  O
  O28      1.0000 0.26320  0.26321  0.72970  Biso   1.000  O
  O29      1.0000 0.26320  0.55785  0.43505  Biso   1.000  O
  O30      1.0000 0.77696  0.26321  0.72970  Biso   1.000  O
  O31      1.0000 0.26320  0.77697  0.43505  Biso   1.000  O
  O32      1.0000 0.55785  0.26321  0.94881  Biso   1.000  O
  O33      1.0000 0.80175  0.17731  0.84363  Biso   1.000  O
  O34      1.0000 0.17730  0.80176  0.34915  Biso   1.000  O
  O35      1.0000 0.67178  0.17731  0.97360  Biso   1.000  O
  O36      1.0000 0.17730  0.67179  0.34915  Biso   1.000  O
  O37      1.0000 0.80175  0.67179  0.34915  Biso   1.000  O
  O38      1.0000 0.17730  0.17731  0.84363  Biso   1.000  O
  O39      1.0000 0.67178  0.80176  0.34915  Biso   1.000  O
  O40      1.0000 0.17730  0.17731  0.97360  Biso   1.000  O
  O41      1.0000 0.80175  0.17731  0.34915  Biso   1.000  O
  O42      1.0000 0.17730  0.67179  0.97360  Biso   1.000  O
  O43      1.0000 0.67178  0.17731  0.34915  Biso   1.000  O
  O44      1.0000 0.17730  0.80176  0.84363  Biso   1.000  O
  O45      1.0000 0.24504  0.62059  0.92240  Biso   1.000  O
  O46      1.0000 0.62058  0.24504  0.41689  Biso   1.000  O
  O47      1.0000 0.24504  0.75056  0.79243  Biso   1.000  O
  O48      1.0000 0.75055  0.24504  0.41689  Biso   1.000  O
  O49      1.0000 0.75055  0.62059  0.41689  Biso   1.000  O
  O50      1.0000 0.24504  0.24504  0.92240  Biso   1.000  O
  O51      1.0000 0.62058  0.75056  0.41689  Biso   1.000  O
  O52      1.0000 0.24504  0.24504  0.79243  Biso   1.000  O
  O53      1.0000 0.24504  0.62059  0.41689  Biso   1.000  O
  O54      1.0000 0.75055  0.24504  0.79243  Biso   1.000  O
  O55      1.0000 0.24504  0.75056  0.41689  Biso   1.000  O
  O56      1.0000 0.62058  0.24504  0.92240  Biso   1.000  O
  O57      1.0000 0.76349  0.15059  0.93534  Biso   1.000  O
  O58      1.0000 0.82092  0.09315  0.99277  Biso   1.000  O
  O59      1.0000 0.15058  0.76350  0.32243  Biso   1.000  O
  O60      1.0000 0.09314  0.82093  0.26499  Biso   1.000  O
  O61      1.0000 0.76349  0.76350  0.32243  Biso   1.000  O
  O62      1.0000 0.82092  0.82093  0.26499  Biso   1.000  O
  O63      1.0000 0.15058  0.15059  0.93534  Biso   1.000  O
  O64      1.0000 0.09314  0.09315  0.99277  Biso   1.000  O
  O65      1.0000 0.76349  0.15059  0.32243  Biso   1.000  O
  O66      1.0000 0.82092  0.09315  0.26499  Biso   1.000  O
  O67      1.0000 0.15058  0.76350  0.93534  Biso   1.000  O
  O68      1.0000 0.09314  0.82093  0.99277  Biso   1.000  O
  O69      1.0000 0.27176  0.65886  0.83070  Biso   1.000  O
  O70      1.0000 0.32919  0.60142  0.77326  Biso   1.000  O
  O71      1.0000 0.65885  0.27177  0.44361  Biso   1.000  O
  O72      1.0000 0.60141  0.32920  0.50104  Biso   1.000  O
  O73      1.0000 0.65885  0.65886  0.44361  Biso   1.000  O
  O74      1.0000 0.60141  0.60142  0.50104  Biso   1.000  O
  O75      1.0000 0.27176  0.27177  0.83070  Biso   1.000  O
  O76      1.0000 0.32919  0.32920  0.77326  Biso   1.000  O
  O77      1.0000 0.27176  0.65886  0.44361  Biso   1.000  O
  O78      1.0000 0.32919  0.60142  0.50104  Biso   1.000  O
  O79      1.0000 0.65885  0.27177  0.83070  Biso   1.000  O
  O80      1.0000 0.60141  0.32920  0.77326  Biso   1.000  O
  O81      1.0000 0.95703  0.95704  0.12888  Biso   1.000  O
  O82      1.0000 0.46530  0.46531  0.63715  Biso   1.000  O
  O83      1.0000 0.90598  0.07147  0.95108  Biso   1.000  O
  O84      1.0000 0.07146  0.90599  0.24331  Biso   1.000  O
  O85      1.0000 0.77923  0.07147  0.07783  Biso   1.000  O
  O86      1.0000 0.07146  0.77924  0.24331  Biso   1.000  O
  O87      1.0000 0.90598  0.77924  0.24331  Biso   1.000  O
  O88      1.0000 0.07146  0.07147  0.95108  Biso   1.000  O
  O89      1.0000 0.77923  0.90599  0.24331  Biso   1.000  O
  O90      1.0000 0.07146  0.07147  0.07783  Biso   1.000  O
  O91      1.0000 0.90598  0.07147  0.24331  Biso   1.000  O
  O92      1.0000 0.07146  0.77924  0.07783  Biso   1.000  O
  O93      1.0000 0.77923  0.07147  0.24331  Biso   1.000  O
  O94      1.0000 0.07146  0.90599  0.95108  Biso   1.000  O
  O95      1.0000 0.35088  0.51636  0.81495  Biso   1.000  O
  O96      1.0000 0.51635  0.35089  0.52273  Biso   1.000  O
  O97      1.0000 0.35088  0.64311  0.68820  Biso   1.000  O
  O98      1.0000 0.64310  0.35089  0.52273  Biso   1.000  O
  O99      1.0000 0.64310  0.51636  0.52273  Biso   1.000  O
  O100     1.0000 0.35088  0.35089  0.81495  Biso   1.000  O
  O101     1.0000 0.51635  0.64311  0.52273  Biso   1.000  O
  O102     1.0000 0.35088  0.35089  0.68820  Biso   1.000  O
  O103     1.0000 0.35088  0.51636  0.52273  Biso   1.000  O
  O104     1.0000 0.64310  0.35089  0.68820  Biso   1.000  O
  O105     1.0000 0.35088  0.64311  0.52273  Biso   1.000  O
  O106     1.0000 0.51635  0.35089  0.81495  Biso   1.000  O
