data_image0
_cell_length_a       18.3063
_cell_length_b       18.3063
_cell_length_c       18.3063
_cell_angle_alpha    60
_cell_angle_beta     60
_cell_angle_gamma    60

_symmetry_space_group_name_H-M    "P 1"
_symmetry_int_tables_number       1

loop_
  _symmetry_equiv_pos_as_xyz
  'x, y, z'

loop_
  _atom_site_label
  _atom_site_occupancy
  _atom_site_fract_x
  _atom_site_fract_y
  _atom_site_fract_z
  _atom_site_thermal_displace_type
  _atom_site_B_iso_or_equiv
  _atom_site_type_symbol
  C1       1.0000 0.20664  0.38006  0.20665  Biso   1.000  C
  C2       1.0000 0.38005  0.20665  0.20665  Biso   1.000  C
  C3       1.0000 0.20664  0.20665  0.20665  Biso   1.000  C
  C4       1.0000 0.20664  0.20665  0.38006  Biso   1.000  C
  C5       1.0000 0.61995  0.79335  0.79335  Biso   1.000  C
  C6       1.0000 0.79336  0.61994  0.79335  Biso   1.000  C
  C7       1.0000 0.79336  0.79335  0.79335  Biso   1.000  C
  C8       1.0000 0.79336  0.79335  0.61994  Biso   1.000  C
  C9       1.0000 0.04520  0.56560  0.04520  Biso   1.000  C
  C10      1.0000 0.56560  0.04520  0.34400  Biso   1.000  C
  C11      1.0000 0.04520  0.34400  0.04520  Biso   1.000  C
  C12      1.0000 0.34400  0.04520  0.56560  Biso   1.000  C
  C13      1.0000 0.04520  0.04520  0.34400  Biso   1.000  C
  C14      1.0000 0.56560  0.34400  0.04520  Biso   1.000  C
  C15      1.0000 0.04520  0.04520  0.56560  Biso   1.000  C
  C16      1.0000 0.34400  0.56560  0.04520  Biso   1.000  C
  C17      1.0000 0.04520  0.34400  0.56560  Biso   1.000  C
  C18      1.0000 0.56560  0.04520  0.04520  Biso   1.000  C
  C19      1.0000 0.04520  0.56560  0.34400  Biso   1.000  C
  C20      1.0000 0.34400  0.04520  0.04520  Biso   1.000  C
  C21      1.0000 0.43440  0.95480  0.95480  Biso   1.000  C
  C22      1.0000 0.95480  0.43440  0.65600  Biso   1.000  C
  C23      1.0000 0.65600  0.95480  0.95480  Biso   1.000  C
  C24      1.0000 0.95480  0.65600  0.43440  Biso   1.000  C
  C25      1.0000 0.95480  0.95480  0.65600  Biso   1.000  C
  C26      1.0000 0.65600  0.43440  0.95480  Biso   1.000  C
  C27      1.0000 0.95480  0.95480  0.43440  Biso   1.000  C
  C28      1.0000 0.43440  0.65600  0.95480  Biso   1.000  C
  C29      1.0000 0.65600  0.95480  0.43440  Biso   1.000  C
  C30      1.0000 0.95480  0.43440  0.95480  Biso   1.000  C
  C31      1.0000 0.43440  0.95480  0.65600  Biso   1.000  C
  C32      1.0000 0.95480  0.65600  0.95480  Biso   1.000  C
  C33      1.0000 0.02683  0.53905  0.02683  Biso   1.000  C
  C34      1.0000 0.53905  0.02683  0.40729  Biso   1.000  C
  C35      1.0000 0.02683  0.40729  0.02683  Biso   1.000  C
  C36      1.0000 0.40729  0.02683  0.53905  Biso   1.000  C
  C37      1.0000 0.02683  0.02683  0.40729  Biso   1.000  C
  C38      1.0000 0.53905  0.40729  0.02683  Biso   1.000  C
  C39      1.0000 0.02683  0.02683  0.53905  Biso   1.000  C
  C40      1.0000 0.40729  0.53905  0.02683  Biso   1.000  C
  C41      1.0000 0.02683  0.40729  0.53905  Biso   1.000  C
  C42      1.0000 0.53905  0.02683  0.02683  Biso   1.000  C
  C43      1.0000 0.02683  0.53905  0.40729  Biso   1.000  C
  C44      1.0000 0.40729  0.02683  0.02683  Biso   1.000  C
  C45      1.0000 0.46095  0.97317  0.97317  Biso   1.000  C
  C46      1.0000 0.97317  0.46095  0.59271  Biso   1.000  C
  C47      1.0000 0.59271  0.97317  0.97317  Biso   1.000  C
  C48      1.0000 0.97317  0.59271  0.46095  Biso   1.000  C
  C49      1.0000 0.97317  0.97317  0.59271  Biso   1.000  C
  C50      1.0000 0.59271  0.46095  0.97317  Biso   1.000  C
  C51      1.0000 0.97317  0.97317  0.46095  Biso   1.000  C
  C52      1.0000 0.46095  0.59271  0.97317  Biso   1.000  C
  C53      1.0000 0.59271  0.97317  0.46095  Biso   1.000  C
  C54      1.0000 0.97317  0.46095  0.97317  Biso   1.000  C
  C55      1.0000 0.46095  0.97317  0.59271  Biso   1.000  C
  C56      1.0000 0.97317  0.59271  0.97317  Biso   1.000  C
  C57      1.0000 0.11144  0.38856  0.11144  Biso   1.000  C
  C58      1.0000 0.05381  0.44619  0.05381  Biso   1.000  C
  C59      1.0000 0.38856  0.11144  0.38856  Biso   1.000  C
  C60      1.0000 0.44619  0.05381  0.44619  Biso   1.000  C
  C61      1.0000 0.11144  0.11144  0.38856  Biso   1.000  C
  C62      1.0000 0.05381  0.05381  0.44619  Biso   1.000  C
  C63      1.0000 0.38856  0.38856  0.11144  Biso   1.000  C
  C64      1.0000 0.44619  0.44619  0.05381  Biso   1.000  C
  C65      1.0000 0.11144  0.38856  0.38856  Biso   1.000  C
  C66      1.0000 0.05381  0.44619  0.44619  Biso   1.000  C
  C67      1.0000 0.38856  0.11144  0.11144  Biso   1.000  C
  C68      1.0000 0.44619  0.05381  0.05381  Biso   1.000  C
  C69      1.0000 0.61144  0.88856  0.88856  Biso   1.000  C
  C70      1.0000 0.55381  0.94619  0.94619  Biso   1.000  C
  C71      1.0000 0.88856  0.61144  0.61144  Biso   1.000  C
  C72      1.0000 0.94619  0.55381  0.55381  Biso   1.000  C
  C73      1.0000 0.88856  0.88856  0.61144  Biso   1.000  C
  C74      1.0000 0.94619  0.94619  0.55381  Biso   1.000  C
  C75      1.0000 0.61144  0.61144  0.88856  Biso   1.000  C
  C76      1.0000 0.55381  0.55381  0.94619  Biso   1.000  C
  C77      1.0000 0.61144  0.88856  0.61144  Biso   1.000  C
  C78      1.0000 0.55381  0.94619  0.55381  Biso   1.000  C
  C79      1.0000 0.88856  0.61144  0.88856  Biso   1.000  C
  C80      1.0000 0.94619  0.55381  0.94619  Biso   1.000  C
  C81      1.0000 0.25000  0.25000  0.25000  Biso   1.000  C
  C82      1.0000 0.75000  0.75000  0.75000  Biso   1.000  C
  C83      1.0000 0.13368  0.42768  0.13368  Biso   1.000  C
  C84      1.0000 0.42768  0.13368  0.30496  Biso   1.000  C
  C85      1.0000 0.13368  0.30496  0.13368  Biso   1.000  C
  C86      1.0000 0.30496  0.13368  0.42768  Biso   1.000  C
  C87      1.0000 0.13368  0.13368  0.30496  Biso   1.000  C
  C88      1.0000 0.42768  0.30496  0.13368  Biso   1.000  C
  C89      1.0000 0.13368  0.13368  0.42768  Biso   1.000  C
  C90      1.0000 0.30496  0.42768  0.13368  Biso   1.000  C
  C91      1.0000 0.13368  0.30496  0.42768  Biso   1.000  C
  C92      1.0000 0.42768  0.13368  0.13368  Biso   1.000  C
  C93      1.0000 0.13368  0.42768  0.30496  Biso   1.000  C
  C94      1.0000 0.30496  0.13368  0.13368  Biso   1.000  C
  C95      1.0000 0.57232  0.86632  0.86632  Biso   1.000  C
  C96      1.0000 0.86632  0.57232  0.69504  Biso   1.000  C
  C97      1.0000 0.69504  0.86632  0.86632  Biso   1.000  C
  C98      1.0000 0.86632  0.69504  0.57232  Biso   1.000  C
  C99      1.0000 0.86632  0.86632  0.69504  Biso   1.000  C
  C100     1.0000 0.69504  0.57232  0.86632  Biso   1.000  C
  C101     1.0000 0.86632  0.86632  0.57232  Biso   1.000  C
  C102     1.0000 0.57232  0.69504  0.86632  Biso   1.000  C
  C103     1.0000 0.69504  0.86632  0.57232  Biso   1.000  C
  C104     1.0000 0.86632  0.57232  0.86632  Biso   1.000  C
  C105     1.0000 0.57232  0.86632  0.69504  Biso   1.000  C
  C106     1.0000 0.86632  0.69504  0.86632  Biso   1.000  C
  O1       1.0000 0.90716  0.59568  0.58992  Biso   1.000  O
  O2       1.0000 0.32286  0.17986  0.00581  Biso   1.000  O
  O3       1.0000 0.32286  0.00603  0.00581  Biso   1.000  O
  O4       1.0000 0.90716  0.42185  0.58992  Biso   1.000  O
  O5       1.0000 0.90670  0.59602  0.41585  Biso   1.000  O
  O6       1.0000 0.73293  0.59583  0.59002  Biso   1.000  O
  O7       1.0000 0.32332  0.00569  0.17989  Biso   1.000  O
  O8       1.0000 0.49709  0.00588  0.00572  Biso   1.000  O
  O9       1.0000 0.07528  0.23732  0.44719  Biso   1.000  O
  O10      1.0000 0.06300  0.45683  0.23672  Biso   1.000  O
  O11      1.0000 0.77322  0.23840  0.74913  Biso   1.000  O
  O12      1.0000 0.55102  0.45432  0.75141  Biso   1.000  O
  O13      1.0000 0.07608  0.45630  0.74664  Biso   1.000  O
  O14      1.0000 0.15474  0.84689  0.14854  Biso   1.000  O
  O15      1.0000 0.16702  0.84370  0.35901  Biso   1.000  O
  O16      1.0000 0.45680  0.84780  0.84661  Biso   1.000  O
  O17      1.0000 0.67900  0.84382  0.84432  Biso   1.000  O
  O18      1.0000 0.15393  0.36609  0.84909  Biso   1.000  O
  O19      1.0000 0.15474  0.36439  0.14854  Biso   1.000  O
  O20      1.0000 0.16702  0.14488  0.35901  Biso   1.000  O
  O21      1.0000 0.45680  0.36331  0.84661  Biso   1.000  O
  O22      1.0000 0.67900  0.14740  0.84432  Biso   1.000  O
  O23      1.0000 0.15393  0.14541  0.84909  Biso   1.000  O
  O24      1.0000 0.07527  0.75483  0.44719  Biso   1.000  O
  O25      1.0000 0.06300  0.75802  0.23672  Biso   1.000  O
  O26      1.0000 0.77321  0.75391  0.74913  Biso   1.000  O
  O27      1.0000 0.55102  0.75789  0.75141  Biso   1.000  O
  O28      1.0000 0.07609  0.23562  0.74664  Biso   1.000  O
  O29      1.0000 0.55190  0.75671  0.44928  Biso   1.000  O
  O30      1.0000 0.76450  0.75782  0.23444  Biso   1.000  O
  O31      1.0000 0.67812  0.84500  0.14645  Biso   1.000  O
  O32      1.0000 0.46551  0.84389  0.36130  Biso   1.000  O
  O33      1.0000 0.00088  0.41338  0.41100  Biso   1.000  O
  O34      1.0000 0.06012  0.35563  0.35016  Biso   1.000  O
  O35      1.0000 0.09297  0.26287  0.38535  Biso   1.000  O
  O36      1.0000 0.08228  0.39510  0.26257  Biso   1.000  O
  O37      1.0000 0.72347  0.41655  0.68649  Biso   1.000  O
  O38      1.0000 0.66970  0.35839  0.74147  Biso   1.000  O
  O39      1.0000 0.71139  0.26444  0.76702  Biso   1.000  O
  O40      1.0000 0.57855  0.39269  0.76881  Biso   1.000  O
  O41      1.0000 0.09189  0.39457  0.76662  Biso   1.000  O
  O42      1.0000 0.22913  0.91239  0.18473  Biso   1.000  O
  O43      1.0000 0.16989  0.85305  0.24557  Biso   1.000  O
  O44      1.0000 0.13705  0.82830  0.21038  Biso   1.000  O
  O45      1.0000 0.14773  0.82710  0.33316  Biso   1.000  O
  O46      1.0000 0.50654  0.91360  0.90924  Biso   1.000  O
  O47      1.0000 0.56032  0.85664  0.85426  Biso   1.000  O
  O48      1.0000 0.51863  0.82991  0.82871  Biso   1.000  O
  O49      1.0000 0.65147  0.82712  0.82692  Biso   1.000  O
  O50      1.0000 0.13812  0.34015  0.82911  Biso   1.000  O
  O51      1.0000 0.22913  0.18833  0.18473  Biso   1.000  O
  O52      1.0000 0.16990  0.24608  0.24557  Biso   1.000  O
  O53      1.0000 0.13705  0.33884  0.21038  Biso   1.000  O
  O54      1.0000 0.14773  0.20661  0.33316  Biso   1.000  O
  O55      1.0000 0.50655  0.18517  0.90924  Biso   1.000  O
  O56      1.0000 0.56032  0.24332  0.85426  Biso   1.000  O
  O57      1.0000 0.51863  0.33727  0.82871  Biso   1.000  O
  O58      1.0000 0.65147  0.20903  0.82692  Biso   1.000  O
  O59      1.0000 0.13813  0.20714  0.82911  Biso   1.000  O
  O60      1.0000 0.00088  0.68932  0.41100  Biso   1.000  O
  O61      1.0000 0.06012  0.74867  0.35016  Biso   1.000  O
  O62      1.0000 0.09296  0.77342  0.38535  Biso   1.000  O
  O63      1.0000 0.08229  0.77462  0.26257  Biso   1.000  O
  O64      1.0000 0.72347  0.68811  0.68649  Biso   1.000  O
  O65      1.0000 0.66970  0.74507  0.74147  Biso   1.000  O
  O66      1.0000 0.71139  0.77181  0.76702  Biso   1.000  O
  O67      1.0000 0.57855  0.77459  0.76881  Biso   1.000  O
  O68      1.0000 0.09189  0.26156  0.76662  Biso   1.000  O
  O69      1.0000 0.73012  0.69012  0.40424  Biso   1.000  O
  O70      1.0000 0.66829  0.74698  0.35235  Biso   1.000  O
  O71      1.0000 0.57893  0.77401  0.38764  Biso   1.000  O
  O72      1.0000 0.70278  0.77521  0.26138  Biso   1.000  O
  O73      1.0000 0.99940  0.41834  0.67854  Biso   1.000  O
  O74      1.0000 0.05905  0.35700  0.74157  Biso   1.000  O
  O75      1.0000 0.49990  0.91160  0.19149  Biso   1.000  O
  O76      1.0000 0.56173  0.85474  0.24339  Biso   1.000  O
  O77      1.0000 0.65109  0.82770  0.20809  Biso   1.000  O
  O78      1.0000 0.52724  0.82650  0.33435  Biso   1.000  O
  O79      1.0000 0.23061  0.18338  0.91719  Biso   1.000  O
  O80      1.0000 0.17097  0.24471  0.85416  Biso   1.000  O
  O81      1.0000 0.98090  0.49827  0.36537  Biso   1.000  O
  O82      1.0000 0.98220  0.36974  0.49472  Biso   1.000  O
  O83      1.0000 0.68381  0.49925  0.66015  Biso   1.000  O
  O84      1.0000 0.80925  0.37271  0.66412  Biso   1.000  O
  O85      1.0000 0.98042  0.50024  0.66134  Biso   1.000  O
  O86      1.0000 0.24912  0.93167  0.23036  Biso   1.000  O
  O87      1.0000 0.24782  0.93377  0.10102  Biso   1.000  O
  O88      1.0000 0.54621  0.93030  0.93559  Biso   1.000  O
  O89      1.0000 0.42076  0.93318  0.93161  Biso   1.000  O
  O90      1.0000 0.24960  0.22910  0.93439  Biso   1.000  O
  O91      1.0000 0.24912  0.10344  0.23036  Biso   1.000  O
  O92      1.0000 0.24782  0.23197  0.10102  Biso   1.000  O
  O93      1.0000 0.54621  0.10246  0.93559  Biso   1.000  O
  O94      1.0000 0.42077  0.22900  0.93161  Biso   1.000  O
  O95      1.0000 0.24960  0.10147  0.93439  Biso   1.000  O
  O96      1.0000 0.98090  0.67004  0.36537  Biso   1.000  O
  O97      1.0000 0.98220  0.66795  0.49472  Biso   1.000  O
  O98      1.0000 0.68381  0.67142  0.66015  Biso   1.000  O
  O99      1.0000 0.80925  0.66853  0.66412  Biso   1.000  O
  O100     1.0000 0.98042  0.37261  0.66134  Biso   1.000  O
  O101     1.0000 0.86422  0.55214  0.54611  Biso   1.000  O
  O102     1.0000 0.81043  0.66905  0.36607  Biso   1.000  O
  O103     1.0000 0.68519  0.67133  0.48676  Biso   1.000  O
  O104     1.0000 0.36580  0.04957  0.04962  Biso   1.000  O
  O105     1.0000 0.41959  0.93267  0.22967  Biso   1.000  O
  O106     1.0000 0.54482  0.93039  0.10897  Biso   1.000  O
