data_image0
_cell_length_a       18.3127
_cell_length_b       18.3127
_cell_length_c       18.3127
_cell_angle_alpha    60
_cell_angle_beta     60
_cell_angle_gamma    60

_symmetry_space_group_name_H-M    "P 1"
_symmetry_int_tables_number       1

loop_
  _symmetry_equiv_pos_as_xyz
  'x, y, z'

loop_
  _atom_site_label
  _atom_site_occupancy
  _atom_site_fract_x
  _atom_site_fract_y
  _atom_site_fract_z
  _atom_site_thermal_displace_type
  _atom_site_B_iso_or_equiv
  _atom_site_type_symbol
  Zn1      1.0000 0.20666  0.38001  0.20666  Biso   1.000  Zn
  Zn2      1.0000 0.38001  0.20666  0.20666  Biso   1.000  Zn
  Zn3      1.0000 0.20667  0.20666  0.20666  Biso   1.000  Zn
  Zn4      1.0000 0.20667  0.20666  0.38001  Biso   1.000  Zn
  Zn5      1.0000 0.61999  0.79334  0.79334  Biso   1.000  Zn
  Zn6      1.0000 0.79334  0.61999  0.79333  Biso   1.000  Zn
  Zn7      1.0000 0.79334  0.79333  0.79334  Biso   1.000  Zn
  Zn8      1.0000 0.79334  0.79333  0.61999  Biso   1.000  Zn
  H1       1.0000 0.04520  0.56580  0.04520  Biso   1.000  H
  H2       1.0000 0.56580  0.04520  0.34380  Biso   1.000  H
  H3       1.0000 0.04520  0.34380  0.04520  Biso   1.000  H
  H4       1.0000 0.34380  0.04520  0.56580  Biso   1.000  H
  H5       1.0000 0.04520  0.04520  0.34380  Biso   1.000  H
  H6       1.0000 0.56580  0.34380  0.04520  Biso   1.000  H
  H7       1.0000 0.04520  0.04520  0.56580  Biso   1.000  H
  H8       1.0000 0.34380  0.56580  0.04520  Biso   1.000  H
  H9       1.0000 0.04520  0.34380  0.56580  Biso   1.000  H
  H10      1.0000 0.56580  0.04520  0.04520  Biso   1.000  H
  H11      1.0000 0.04520  0.56580  0.34380  Biso   1.000  H
  H12      1.0000 0.34380  0.04520  0.04520  Biso   1.000  H
  H13      1.0000 0.43420  0.95480  0.95480  Biso   1.000  H
  H14      1.0000 0.95480  0.43420  0.65620  Biso   1.000  H
  H15      1.0000 0.65620  0.95480  0.95480  Biso   1.000  H
  H16      1.0000 0.95480  0.65620  0.43420  Biso   1.000  H
  H17      1.0000 0.95480  0.95480  0.65620  Biso   1.000  H
  H18      1.0000 0.65620  0.43420  0.95480  Biso   1.000  H
  H19      1.0000 0.95480  0.95480  0.43420  Biso   1.000  H
  H20      1.0000 0.43420  0.65620  0.95480  Biso   1.000  H
  H21      1.0000 0.65620  0.95480  0.43420  Biso   1.000  H
  H22      1.0000 0.95480  0.43420  0.95480  Biso   1.000  H
  H23      1.0000 0.43420  0.95480  0.65620  Biso   1.000  H
  H24      1.0000 0.95480  0.65620  0.95480  Biso   1.000  H
  C1       1.0000 0.02688  0.53930  0.02688  Biso   1.000  C
  C2       1.0000 0.53930  0.02688  0.40694  Biso   1.000  C
  C3       1.0000 0.02688  0.40694  0.02688  Biso   1.000  C
  C4       1.0000 0.40694  0.02688  0.53930  Biso   1.000  C
  C5       1.0000 0.02688  0.02688  0.40694  Biso   1.000  C
  C6       1.0000 0.53930  0.40694  0.02688  Biso   1.000  C
  C7       1.0000 0.02688  0.02688  0.53930  Biso   1.000  C
  C8       1.0000 0.40694  0.53930  0.02688  Biso   1.000  C
  C9       1.0000 0.02688  0.40694  0.53930  Biso   1.000  C
  C10      1.0000 0.53930  0.02688  0.02688  Biso   1.000  C
  C11      1.0000 0.02688  0.53930  0.40694  Biso   1.000  C
  C12      1.0000 0.40694  0.02688  0.02688  Biso   1.000  C
  C13      1.0000 0.46070  0.97312  0.97312  Biso   1.000  C
  C14      1.0000 0.97312  0.46070  0.59306  Biso   1.000  C
  C15      1.0000 0.59306  0.97312  0.97312  Biso   1.000  C
  C16      1.0000 0.97312  0.59306  0.46070  Biso   1.000  C
  C17      1.0000 0.97312  0.97312  0.59306  Biso   1.000  C
  C18      1.0000 0.59306  0.46070  0.97312  Biso   1.000  C
  C19      1.0000 0.97312  0.97312  0.46070  Biso   1.000  C
  C20      1.0000 0.46070  0.59306  0.97312  Biso   1.000  C
  C21      1.0000 0.59306  0.97312  0.46070  Biso   1.000  C
  C22      1.0000 0.97312  0.46070  0.97312  Biso   1.000  C
  C23      1.0000 0.46070  0.97312  0.59306  Biso   1.000  C
  C24      1.0000 0.97312  0.59306  0.97312  Biso   1.000  C
  C25      1.0000 0.11142  0.38858  0.11142  Biso   1.000  C
  C26      1.0000 0.05381  0.44619  0.05381  Biso   1.000  C
  C27      1.0000 0.38858  0.11142  0.38858  Biso   1.000  C
  C28      1.0000 0.44619  0.05381  0.44619  Biso   1.000  C
  C29      1.0000 0.11142  0.11142  0.38858  Biso   1.000  C
  C30      1.0000 0.05381  0.05381  0.44619  Biso   1.000  C
  C31      1.0000 0.38858  0.38858  0.11142  Biso   1.000  C
  C32      1.0000 0.44619  0.44619  0.05381  Biso   1.000  C
  C33      1.0000 0.11142  0.38858  0.38858  Biso   1.000  C
  C34      1.0000 0.05381  0.44619  0.44619  Biso   1.000  C
  C35      1.0000 0.38858  0.11142  0.11142  Biso   1.000  C
  C36      1.0000 0.44619  0.05381  0.05381  Biso   1.000  C
  C37      1.0000 0.61142  0.88858  0.88858  Biso   1.000  C
  C38      1.0000 0.55381  0.94619  0.94619  Biso   1.000  C
  C39      1.0000 0.88858  0.61142  0.61142  Biso   1.000  C
  C40      1.0000 0.94619  0.55381  0.55381  Biso   1.000  C
  C41      1.0000 0.88858  0.88858  0.61142  Biso   1.000  C
  C42      1.0000 0.94619  0.94619  0.55381  Biso   1.000  C
  C43      1.0000 0.61142  0.61142  0.88858  Biso   1.000  C
  C44      1.0000 0.55381  0.55381  0.94619  Biso   1.000  C
  C45      1.0000 0.61142  0.88858  0.61142  Biso   1.000  C
  C46      1.0000 0.55381  0.94619  0.55381  Biso   1.000  C
  C47      1.0000 0.88858  0.61142  0.88858  Biso   1.000  C
  C48      1.0000 0.94619  0.55381  0.94619  Biso   1.000  C
  O1       1.0000 0.25000  0.25000  0.25000  Biso   1.000  O
  O2       1.0000 0.75000  0.75000  0.75000  Biso   1.000  O
  O3       1.0000 0.13369  0.42773  0.13369  Biso   1.000  O
  O4       1.0000 0.42773  0.13369  0.30489  Biso   1.000  O
  O5       1.0000 0.13369  0.30489  0.13369  Biso   1.000  O
  O6       1.0000 0.30489  0.13369  0.42773  Biso   1.000  O
  O7       1.0000 0.13369  0.13369  0.30489  Biso   1.000  O
  O8       1.0000 0.42773  0.30489  0.13369  Biso   1.000  O
  O9       1.0000 0.13369  0.13369  0.42773  Biso   1.000  O
  O10      1.0000 0.30489  0.42773  0.13369  Biso   1.000  O
  O11      1.0000 0.13369  0.30489  0.42773  Biso   1.000  O
  O12      1.0000 0.42773  0.13369  0.13369  Biso   1.000  O
  O13      1.0000 0.13369  0.42773  0.30489  Biso   1.000  O
  O14      1.0000 0.30489  0.13369  0.13369  Biso   1.000  O
  O15      1.0000 0.57227  0.86631  0.86631  Biso   1.000  O
  O16      1.0000 0.86631  0.57227  0.69511  Biso   1.000  O
  O17      1.0000 0.69511  0.86631  0.86631  Biso   1.000  O
  O18      1.0000 0.86631  0.69511  0.57227  Biso   1.000  O
  O19      1.0000 0.86631  0.86631  0.69511  Biso   1.000  O
  O20      1.0000 0.69511  0.57227  0.86631  Biso   1.000  O
  O21      1.0000 0.86631  0.86631  0.57227  Biso   1.000  O
  O22      1.0000 0.57227  0.69511  0.86631  Biso   1.000  O
  O23      1.0000 0.69511  0.86631  0.57227  Biso   1.000  O
  O24      1.0000 0.86631  0.57227  0.86631  Biso   1.000  O
  O25      1.0000 0.57227  0.86631  0.69511  Biso   1.000  O
  O26      1.0000 0.86631  0.69511  0.86631  Biso   1.000  O
  Zn9      1.0000 0.06999  0.59641  0.59007  Biso   1.000  Zn
  Zn10     1.0000 0.48648  0.17992  0.00651  Biso   1.000  Zn
  Zn11     1.0000 0.48648  0.00672  0.00651  Biso   1.000  Zn
  Zn12     1.0000 0.06999  0.42321  0.59007  Biso   1.000  Zn
  Zn13     1.0000 0.06973  0.59661  0.41671  Biso   1.000  Zn
  Zn14     1.0000 0.89645  0.59648  0.59027  Biso   1.000  Zn
  Zn15     1.0000 0.48673  0.00652  0.17986  Biso   1.000  Zn
  Zn16     1.0000 0.66002  0.00665  0.00630  Biso   1.000  Zn
  H25      1.0000 0.23719  0.23485  0.44960  Biso   1.000  H
  H26      1.0000 0.22521  0.45619  0.23709  Biso   1.000  H
  H27      1.0000 0.93832  0.23682  0.75013  Biso   1.000  H
  H28      1.0000 0.71200  0.45735  0.75539  Biso   1.000  H
  H29      1.0000 0.23889  0.45676  0.74834  Biso   1.000  H
  H30      1.0000 0.31928  0.84508  0.14698  Biso   1.000  H
  H31      1.0000 0.33125  0.84199  0.35949  Biso   1.000  H
  H32      1.0000 0.61815  0.84867  0.84645  Biso   1.000  H
  H33      1.0000 0.84446  0.84818  0.84118  Biso   1.000  H
  H34      1.0000 0.31757  0.36740  0.84824  Biso   1.000  H
  H35      1.0000 0.31928  0.36828  0.14698  Biso   1.000  H
  H36      1.0000 0.33125  0.14694  0.35949  Biso   1.000  H
  H37      1.0000 0.61815  0.36631  0.84645  Biso   1.000  H
  H38      1.0000 0.84446  0.14578  0.84118  Biso   1.000  H
  H39      1.0000 0.31758  0.14637  0.84824  Biso   1.000  H
  H40      1.0000 0.23719  0.75805  0.44960  Biso   1.000  H
  H41      1.0000 0.22522  0.76114  0.23709  Biso   1.000  H
  H42      1.0000 0.93832  0.75446  0.75013  Biso   1.000  H
  H43      1.0000 0.71200  0.75495  0.75539  Biso   1.000  H
  H44      1.0000 0.23889  0.23573  0.74834  Biso   1.000  H
  H45      1.0000 0.71586  0.75676  0.45029  Biso   1.000  H
  H46      1.0000 0.92752  0.75945  0.23321  Biso   1.000  H
  H47      1.0000 0.84060  0.84637  0.14628  Biso   1.000  H
  H48      1.0000 0.62894  0.84368  0.36336  Biso   1.000  H
  C49      1.0000 0.16443  0.41356  0.41115  Biso   1.000  C
  C50      1.0000 0.22264  0.35695  0.35114  Biso   1.000  C
  C51      1.0000 0.25596  0.26117  0.38770  Biso   1.000  C
  C52      1.0000 0.24607  0.39440  0.26252  Biso   1.000  C
  C53      1.0000 0.88890  0.41474  0.68595  Biso   1.000  C
  C54      1.0000 0.83219  0.35941  0.74248  Biso   1.000  C
  C55      1.0000 0.87664  0.26235  0.76751  Biso   1.000  C
  C56      1.0000 0.73942  0.39577  0.77089  Biso   1.000  C
  C57      1.0000 0.25508  0.39507  0.76771  Biso   1.000  C
  C58      1.0000 0.39203  0.91263  0.18543  Biso   1.000  C
  C59      1.0000 0.33383  0.85421  0.24543  Biso   1.000  C
  C60      1.0000 0.30051  0.82829  0.20887  Biso   1.000  C
  C61      1.0000 0.31039  0.82650  0.33405  Biso   1.000  C
  C62      1.0000 0.66756  0.91304  0.91063  Biso   1.000  C
  C63      1.0000 0.72427  0.85751  0.85410  Biso   1.000  C
  C64      1.0000 0.67983  0.82990  0.82906  Biso   1.000  C
  C65      1.0000 0.81705  0.82950  0.82568  Biso   1.000  C
  C66      1.0000 0.30138  0.34128  0.82886  Biso   1.000  C
  C67      1.0000 0.39203  0.18957  0.18543  Biso   1.000  C
  C68      1.0000 0.33383  0.24618  0.24543  Biso   1.000  C
  C69      1.0000 0.30050  0.34196  0.20887  Biso   1.000  C
  C70      1.0000 0.31039  0.20873  0.33405  Biso   1.000  C
  C71      1.0000 0.66756  0.18839  0.91063  Biso   1.000  C
  C72      1.0000 0.72428  0.24372  0.85410  Biso   1.000  C
  C73      1.0000 0.67983  0.34078  0.82906  Biso   1.000  C
  C74      1.0000 0.81705  0.20736  0.82568  Biso   1.000  C
  C75      1.0000 0.30138  0.20806  0.82886  Biso   1.000  C
  C76      1.0000 0.16443  0.69051  0.41115  Biso   1.000  C
  C77      1.0000 0.22264  0.74892  0.35114  Biso   1.000  C
  C78      1.0000 0.25596  0.77484  0.38770  Biso   1.000  C
  C79      1.0000 0.24608  0.77663  0.26252  Biso   1.000  C
  C80      1.0000 0.88890  0.69009  0.68595  Biso   1.000  C
  C81      1.0000 0.83219  0.74562  0.74248  Biso   1.000  C
  C82      1.0000 0.87663  0.77323  0.76751  Biso   1.000  C
  C83      1.0000 0.73942  0.77363  0.77089  Biso   1.000  C
  C84      1.0000 0.25508  0.26185  0.76771  Biso   1.000  C
  C85      1.0000 0.89068  0.69219  0.40459  Biso   1.000  C
  C86      1.0000 0.83187  0.74792  0.35194  Biso   1.000  C
  C87      1.0000 0.74228  0.77434  0.38870  Biso   1.000  C
  C88      1.0000 0.86564  0.77673  0.26054  Biso   1.000  C
  C89      1.0000 0.16365  0.41762  0.68078  Biso   1.000  C
  C90      1.0000 0.22166  0.35782  0.74238  Biso   1.000  C
  C91      1.0000 0.66579  0.91094  0.19198  Biso   1.000  C
  C92      1.0000 0.72459  0.85521  0.24464  Biso   1.000  C
  C93      1.0000 0.81419  0.82879  0.20788  Biso   1.000  C
  C94      1.0000 0.69082  0.82640  0.33604  Biso   1.000  C
  C95      1.0000 0.39281  0.18551  0.91579  Biso   1.000  C
  C96      1.0000 0.33480  0.24531  0.85420  Biso   1.000  C
  O27      1.0000 0.14248  0.49870  0.36793  Biso   1.000  O
  O28      1.0000 0.14487  0.37333  0.49331  Biso   1.000  O
  O29      1.0000 0.84828  0.49977  0.66081  Biso   1.000  O
  O30      1.0000 0.97264  0.37481  0.66359  Biso   1.000  O
  O31      1.0000 0.14279  0.50007  0.66131  Biso   1.000  O
  O32      1.0000 0.41398  0.93259  0.22864  Biso   1.000  O
  O33      1.0000 0.41159  0.93498  0.10327  Biso   1.000  O
  O34      1.0000 0.70819  0.93231  0.93576  Biso   1.000  O
  O35      1.0000 0.58383  0.93449  0.93298  Biso   1.000  O
  O36      1.0000 0.41367  0.22762  0.93527  Biso   1.000  O
  O37      1.0000 0.41399  0.10443  0.22864  Biso   1.000  O
  O38      1.0000 0.41160  0.22980  0.10327  Biso   1.000  O
  O39      1.0000 0.70819  0.10336  0.93576  Biso   1.000  O
  O40      1.0000 0.58383  0.22832  0.93298  Biso   1.000  O
  O41      1.0000 0.41367  0.10306  0.93527  Biso   1.000  O
  O42      1.0000 0.14248  0.67054  0.36793  Biso   1.000  O
  O43      1.0000 0.14487  0.66815  0.49331  Biso   1.000  O
  O44      1.0000 0.84828  0.67082  0.66081  Biso   1.000  O
  O45      1.0000 0.97264  0.66864  0.66359  Biso   1.000  O
  O46      1.0000 0.14279  0.37551  0.66131  Biso   1.000  O
  O47      1.0000 0.02657  0.55332  0.54646  Biso   1.000  O
  O48      1.0000 0.97243  0.66915  0.36892  Biso   1.000  O
  O49      1.0000 0.84956  0.67073  0.48864  Biso   1.000  O
  O50      1.0000 0.52990  0.04981  0.05011  Biso   1.000  O
  O51      1.0000 0.58404  0.93398  0.22765  Biso   1.000  O
  O52      1.0000 0.70690  0.93240  0.10794  Biso   1.000  O
