data_image0
_cell_length_a       18.2943
_cell_length_b       18.2943
_cell_length_c       18.2943
_cell_angle_alpha    60
_cell_angle_beta     60
_cell_angle_gamma    60

_symmetry_space_group_name_H-M    "P 1"
_symmetry_int_tables_number       1

loop_
  _symmetry_equiv_pos_as_xyz
  'x, y, z'

loop_
  _atom_site_label
  _atom_site_occupancy
  _atom_site_fract_x
  _atom_site_fract_y
  _atom_site_fract_z
  _atom_site_thermal_displace_type
  _atom_site_B_iso_or_equiv
  _atom_site_type_symbol
  Zn1      1.0000 0.20660  0.38020  0.20660  Biso   1.000  Zn
  Zn2      1.0000 0.38020  0.20660  0.20660  Biso   1.000  Zn
  Zn3      1.0000 0.20660  0.20660  0.20660  Biso   1.000  Zn
  Zn4      1.0000 0.20660  0.20660  0.38020  Biso   1.000  Zn
  Zn5      1.0000 0.61980  0.79340  0.79340  Biso   1.000  Zn
  Zn6      1.0000 0.79340  0.61980  0.79340  Biso   1.000  Zn
  Zn7      1.0000 0.79340  0.79340  0.79340  Biso   1.000  Zn
  Zn8      1.0000 0.79340  0.79340  0.61980  Biso   1.000  Zn
  H1       1.0000 0.04510  0.56550  0.04510  Biso   1.000  H
  H2       1.0000 0.56550  0.04510  0.34430  Biso   1.000  H
  H3       1.0000 0.04510  0.34430  0.04510  Biso   1.000  H
  H4       1.0000 0.34430  0.04510  0.56550  Biso   1.000  H
  H5       1.0000 0.04510  0.04510  0.34430  Biso   1.000  H
  H6       1.0000 0.56550  0.34430  0.04510  Biso   1.000  H
  H7       1.0000 0.04510  0.04510  0.56550  Biso   1.000  H
  H8       1.0000 0.34430  0.56550  0.04510  Biso   1.000  H
  H9       1.0000 0.04510  0.34430  0.56550  Biso   1.000  H
  H10      1.0000 0.56550  0.04510  0.04510  Biso   1.000  H
  H11      1.0000 0.04510  0.56550  0.34430  Biso   1.000  H
  H12      1.0000 0.34430  0.04510  0.04510  Biso   1.000  H
  H13      1.0000 0.43450  0.95490  0.95490  Biso   1.000  H
  H14      1.0000 0.95490  0.43450  0.65570  Biso   1.000  H
  H15      1.0000 0.65570  0.95490  0.95490  Biso   1.000  H
  H16      1.0000 0.95490  0.65570  0.43450  Biso   1.000  H
  H17      1.0000 0.95490  0.95490  0.65570  Biso   1.000  H
  H18      1.0000 0.65570  0.43450  0.95490  Biso   1.000  H
  H19      1.0000 0.95490  0.95490  0.43450  Biso   1.000  H
  H20      1.0000 0.43450  0.65570  0.95490  Biso   1.000  H
  H21      1.0000 0.65570  0.95490  0.43450  Biso   1.000  H
  H22      1.0000 0.95490  0.43450  0.95490  Biso   1.000  H
  H23      1.0000 0.43450  0.95490  0.65570  Biso   1.000  H
  H24      1.0000 0.95490  0.65570  0.95490  Biso   1.000  H
  C1       1.0000 0.02675  0.53889  0.02675  Biso   1.000  C
  C2       1.0000 0.53889  0.02675  0.40761  Biso   1.000  C
  C3       1.0000 0.02675  0.40761  0.02675  Biso   1.000  C
  C4       1.0000 0.40761  0.02675  0.53889  Biso   1.000  C
  C5       1.0000 0.02675  0.02675  0.40761  Biso   1.000  C
  C6       1.0000 0.53889  0.40761  0.02675  Biso   1.000  C
  C7       1.0000 0.02675  0.02675  0.53889  Biso   1.000  C
  C8       1.0000 0.40761  0.53889  0.02675  Biso   1.000  C
  C9       1.0000 0.02675  0.40761  0.53889  Biso   1.000  C
  C10      1.0000 0.53889  0.02675  0.02675  Biso   1.000  C
  C11      1.0000 0.02675  0.53889  0.40761  Biso   1.000  C
  C12      1.0000 0.40761  0.02675  0.02675  Biso   1.000  C
  C13      1.0000 0.46111  0.97325  0.97325  Biso   1.000  C
  C14      1.0000 0.97325  0.46111  0.59239  Biso   1.000  C
  C15      1.0000 0.59239  0.97325  0.97325  Biso   1.000  C
  C16      1.0000 0.97325  0.59239  0.46111  Biso   1.000  C
  C17      1.0000 0.97325  0.97325  0.59239  Biso   1.000  C
  C18      1.0000 0.59239  0.46111  0.97325  Biso   1.000  C
  C19      1.0000 0.97325  0.97325  0.46111  Biso   1.000  C
  C20      1.0000 0.46111  0.59239  0.97325  Biso   1.000  C
  C21      1.0000 0.59239  0.97325  0.46111  Biso   1.000  C
  C22      1.0000 0.97325  0.46111  0.97325  Biso   1.000  C
  C23      1.0000 0.46111  0.97325  0.59239  Biso   1.000  C
  C24      1.0000 0.97325  0.59239  0.97325  Biso   1.000  C
  C25      1.0000 0.11147  0.38853  0.11147  Biso   1.000  C
  C26      1.0000 0.05374  0.44626  0.05374  Biso   1.000  C
  C27      1.0000 0.38853  0.11147  0.38853  Biso   1.000  C
  C28      1.0000 0.44626  0.05374  0.44626  Biso   1.000  C
  C29      1.0000 0.11147  0.11147  0.38853  Biso   1.000  C
  C30      1.0000 0.05374  0.05374  0.44626  Biso   1.000  C
  C31      1.0000 0.38853  0.38853  0.11147  Biso   1.000  C
  C32      1.0000 0.44626  0.44626  0.05374  Biso   1.000  C
  C33      1.0000 0.11147  0.38853  0.38853  Biso   1.000  C
  C34      1.0000 0.05374  0.44626  0.44626  Biso   1.000  C
  C35      1.0000 0.38853  0.11147  0.11147  Biso   1.000  C
  C36      1.0000 0.44626  0.05374  0.05374  Biso   1.000  C
  C37      1.0000 0.61147  0.88853  0.88853  Biso   1.000  C
  C38      1.0000 0.55374  0.94626  0.94626  Biso   1.000  C
  C39      1.0000 0.88853  0.61147  0.61147  Biso   1.000  C
  C40      1.0000 0.94626  0.55374  0.55374  Biso   1.000  C
  C41      1.0000 0.88853  0.88853  0.61147  Biso   1.000  C
  C42      1.0000 0.94626  0.94626  0.55374  Biso   1.000  C
  C43      1.0000 0.61147  0.61147  0.88853  Biso   1.000  C
  C44      1.0000 0.55374  0.55374  0.94626  Biso   1.000  C
  C45      1.0000 0.61147  0.88853  0.61147  Biso   1.000  C
  C46      1.0000 0.55374  0.94626  0.55374  Biso   1.000  C
  C47      1.0000 0.88853  0.61147  0.88853  Biso   1.000  C
  C48      1.0000 0.94626  0.55374  0.94626  Biso   1.000  C
  O1       1.0000 0.25000  0.25000  0.25000  Biso   1.000  O
  O2       1.0000 0.75000  0.75000  0.75000  Biso   1.000  O
  O3       1.0000 0.13372  0.42764  0.13372  Biso   1.000  O
  O4       1.0000 0.42764  0.13372  0.30492  Biso   1.000  O
  O5       1.0000 0.13372  0.30492  0.13372  Biso   1.000  O
  O6       1.0000 0.30492  0.13372  0.42764  Biso   1.000  O
  O7       1.0000 0.13372  0.13372  0.30492  Biso   1.000  O
  O8       1.0000 0.42764  0.30492  0.13372  Biso   1.000  O
  O9       1.0000 0.13372  0.13372  0.42764  Biso   1.000  O
  O10      1.0000 0.30492  0.42764  0.13372  Biso   1.000  O
  O11      1.0000 0.13372  0.30492  0.42764  Biso   1.000  O
  O12      1.0000 0.42764  0.13372  0.13372  Biso   1.000  O
  O13      1.0000 0.13372  0.42764  0.30492  Biso   1.000  O
  O14      1.0000 0.30492  0.13372  0.13372  Biso   1.000  O
  O15      1.0000 0.57236  0.86628  0.86628  Biso   1.000  O
  O16      1.0000 0.86628  0.57236  0.69508  Biso   1.000  O
  O17      1.0000 0.69508  0.86628  0.86628  Biso   1.000  O
  O18      1.0000 0.86628  0.69508  0.57236  Biso   1.000  O
  O19      1.0000 0.86628  0.86628  0.69508  Biso   1.000  O
  O20      1.0000 0.69508  0.57236  0.86628  Biso   1.000  O
  O21      1.0000 0.86628  0.86628  0.57236  Biso   1.000  O
  O22      1.0000 0.57236  0.69508  0.86628  Biso   1.000  O
  O23      1.0000 0.69508  0.86628  0.57236  Biso   1.000  O
  O24      1.0000 0.86628  0.57236  0.86628  Biso   1.000  O
  O25      1.0000 0.57236  0.86628  0.69508  Biso   1.000  O
  O26      1.0000 0.86628  0.69508  0.86628  Biso   1.000  O
  Zn9      1.0000 0.00000  1.00000  1.00000  Biso   1.000  Zn
  Zn10     1.0000 0.00000  1.00000  0.82584  Biso   1.000  Zn
  Zn11     1.0000 0.00000  0.82584  1.00000  Biso   1.000  Zn
  Zn12     1.0000 0.82584  1.00000  1.00000  Biso   1.000  Zn
  Zn13     1.0000 0.41343  0.41341  0.41341  Biso   1.000  Zn
  Zn14     1.0000 0.41343  0.41341  0.58757  Biso   1.000  Zn
  Zn15     1.0000 0.58759  0.41341  0.41341  Biso   1.000  Zn
  Zn16     1.0000 0.41343  0.58757  0.41341  Biso   1.000  Zn
  H25      1.0000 0.16137  0.16136  0.86266  Biso   1.000  H
  H26      1.0000 0.16137  0.16136  0.64144  Biso   1.000  H
  H27      1.0000 0.86267  0.64144  0.16136  Biso   1.000  H
  H28      1.0000 0.64145  0.86266  0.16136  Biso   1.000  H
  H29      1.0000 0.16137  0.86266  0.64144  Biso   1.000  H
  H30      1.0000 0.16137  0.64144  0.86266  Biso   1.000  H
  H31      1.0000 0.86267  0.16136  0.16136  Biso   1.000  H
  H32      1.0000 0.64145  0.16136  0.16136  Biso   1.000  H
  H33      1.0000 0.16137  0.64144  0.16136  Biso   1.000  H
  H34      1.0000 0.16137  0.86266  0.16136  Biso   1.000  H
  H35      1.0000 0.86267  0.16136  0.64144  Biso   1.000  H
  H36      1.0000 0.64145  0.16136  0.86266  Biso   1.000  H
  H37      1.0000 0.25206  0.25205  0.55075  Biso   1.000  H
  H38      1.0000 0.25206  0.25205  0.77197  Biso   1.000  H
  H39      1.0000 0.77198  0.55075  0.25205  Biso   1.000  H
  H40      1.0000 0.55076  0.77197  0.25205  Biso   1.000  H
  H41      1.0000 0.55076  0.25205  0.77197  Biso   1.000  H
  H42      1.0000 0.77198  0.25205  0.55075  Biso   1.000  H
  H43      1.0000 0.25206  0.55075  0.25205  Biso   1.000  H
  H44      1.0000 0.25206  0.77197  0.25205  Biso   1.000  H
  H45      1.0000 0.77198  0.25205  0.25205  Biso   1.000  H
  H46      1.0000 0.55076  0.25205  0.25205  Biso   1.000  H
  H47      1.0000 0.25206  0.55075  0.77197  Biso   1.000  H
  H48      1.0000 0.25206  0.77197  0.55075  Biso   1.000  H
  C49      1.0000 0.18024  0.18023  0.79773  Biso   1.000  C
  C50      1.0000 0.18024  0.18023  0.66863  Biso   1.000  C
  C51      1.0000 0.79774  0.66863  0.18023  Biso   1.000  C
  C52      1.0000 0.66864  0.79773  0.18023  Biso   1.000  C
  C53      1.0000 0.18024  0.79773  0.66863  Biso   1.000  C
  C54      1.0000 0.18024  0.66863  0.79773  Biso   1.000  C
  C55      1.0000 0.79774  0.18023  0.18023  Biso   1.000  C
  C56      1.0000 0.66864  0.18023  0.18023  Biso   1.000  C
  C57      1.0000 0.18024  0.66863  0.18023  Biso   1.000  C
  C58      1.0000 0.18024  0.79773  0.18023  Biso   1.000  C
  C59      1.0000 0.79774  0.18023  0.66863  Biso   1.000  C
  C60      1.0000 0.66864  0.18023  0.79773  Biso   1.000  C
  C61      1.0000 0.23319  0.23318  0.61568  Biso   1.000  C
  C62      1.0000 0.23319  0.23318  0.74478  Biso   1.000  C
  C63      1.0000 0.74479  0.61568  0.23318  Biso   1.000  C
  C64      1.0000 0.61569  0.74478  0.23318  Biso   1.000  C
  C65      1.0000 0.61569  0.23318  0.74478  Biso   1.000  C
  C66      1.0000 0.74479  0.23318  0.61568  Biso   1.000  C
  C67      1.0000 0.23319  0.61568  0.23318  Biso   1.000  C
  C68      1.0000 0.23319  0.74478  0.23318  Biso   1.000  C
  C69      1.0000 0.74479  0.23318  0.23318  Biso   1.000  C
  C70      1.0000 0.61569  0.23318  0.23318  Biso   1.000  C
  C71      1.0000 0.23319  0.61568  0.74478  Biso   1.000  C
  C72      1.0000 0.23319  0.74478  0.61568  Biso   1.000  C
  C73      1.0000 0.09490  0.09489  0.81802  Biso   1.000  C
  C74      1.0000 0.15289  0.15288  0.76003  Biso   1.000  C
  C75      1.0000 0.81803  0.81802  0.09489  Biso   1.000  C
  C76      1.0000 0.76004  0.76003  0.15288  Biso   1.000  C
  C77      1.0000 0.09490  0.81802  0.81802  Biso   1.000  C
  C78      1.0000 0.15289  0.76003  0.76003  Biso   1.000  C
  C79      1.0000 0.81803  0.09489  0.09489  Biso   1.000  C
  C80      1.0000 0.76004  0.15288  0.15288  Biso   1.000  C
  C81      1.0000 0.09490  0.81802  0.09489  Biso   1.000  C
  C82      1.0000 0.15289  0.76003  0.15288  Biso   1.000  C
  C83      1.0000 0.81803  0.09489  0.81802  Biso   1.000  C
  C84      1.0000 0.76004  0.15288  0.76003  Biso   1.000  C
  C85      1.0000 0.31853  0.31852  0.59539  Biso   1.000  C
  C86      1.0000 0.26054  0.26053  0.65338  Biso   1.000  C
  C87      1.0000 0.59540  0.59539  0.31852  Biso   1.000  C
  C88      1.0000 0.65339  0.65338  0.26053  Biso   1.000  C
  C89      1.0000 0.59540  0.31852  0.59539  Biso   1.000  C
  C90      1.0000 0.65339  0.26053  0.65338  Biso   1.000  C
  C91      1.0000 0.31853  0.59539  0.31852  Biso   1.000  C
  C92      1.0000 0.26054  0.65338  0.26053  Biso   1.000  C
  C93      1.0000 0.59540  0.31852  0.31852  Biso   1.000  C
  C94      1.0000 0.65339  0.26053  0.26053  Biso   1.000  C
  C95      1.0000 0.31853  0.59539  0.59539  Biso   1.000  C
  C96      1.0000 0.26054  0.65338  0.65338  Biso   1.000  C
  O27      1.0000 0.07271  0.07270  0.90167  Biso   1.000  O
  O28      1.0000 0.07271  0.07270  0.77875  Biso   1.000  O
  O29      1.0000 0.90168  0.77875  0.07270  Biso   1.000  O
  O30      1.0000 0.77876  0.90167  0.07270  Biso   1.000  O
  O31      1.0000 0.07271  0.90167  0.77875  Biso   1.000  O
  O32      1.0000 0.07271  0.77875  0.90167  Biso   1.000  O
  O33      1.0000 0.90168  0.07270  0.07270  Biso   1.000  O
  O34      1.0000 0.77876  0.07270  0.07270  Biso   1.000  O
  O35      1.0000 0.07271  0.77875  0.07270  Biso   1.000  O
  O36      1.0000 0.07271  0.90167  0.07270  Biso   1.000  O
  O37      1.0000 0.90168  0.07270  0.77875  Biso   1.000  O
  O38      1.0000 0.77876  0.07270  0.90167  Biso   1.000  O
  O39      1.0000 0.34072  0.34071  0.51174  Biso   1.000  O
  O40      1.0000 0.34072  0.34071  0.63466  Biso   1.000  O
  O41      1.0000 0.63467  0.51174  0.34071  Biso   1.000  O
  O42      1.0000 0.51175  0.63466  0.34071  Biso   1.000  O
  O43      1.0000 0.51175  0.34071  0.63466  Biso   1.000  O
  O44      1.0000 0.63467  0.34071  0.51174  Biso   1.000  O
  O45      1.0000 0.34072  0.51174  0.34071  Biso   1.000  O
  O46      1.0000 0.34072  0.63466  0.34071  Biso   1.000  O
  O47      1.0000 0.63467  0.34071  0.34071  Biso   1.000  O
  O48      1.0000 0.51175  0.34071  0.34071  Biso   1.000  O
  O49      1.0000 0.34072  0.51174  0.63466  Biso   1.000  O
  O50      1.0000 0.34072  0.63466  0.51174  Biso   1.000  O
  O51      1.0000 0.95647  0.95646  0.95646  Biso   1.000  O
  O52      1.0000 0.45696  0.45695  0.45695  Biso   1.000  O
