data_image0
_cell_length_a       18.3127
_cell_length_b       18.3127
_cell_length_c       18.3127
_cell_angle_alpha    60
_cell_angle_beta     60
_cell_angle_gamma    60

_symmetry_space_group_name_H-M    "P 1"
_symmetry_int_tables_number       1

loop_
  _symmetry_equiv_pos_as_xyz
  'x, y, z'

loop_
  _atom_site_label
  _atom_site_occupancy
  _atom_site_fract_x
  _atom_site_fract_y
  _atom_site_fract_z
  _atom_site_thermal_displace_type
  _atom_site_B_iso_or_equiv
  _atom_site_type_symbol
  C1       1.0000 0.20666  0.38001  0.20666  Biso   1.000  C
  C2       1.0000 0.38001  0.20666  0.20666  Biso   1.000  C
  C3       1.0000 0.20667  0.20666  0.20666  Biso   1.000  C
  C4       1.0000 0.20667  0.20666  0.38001  Biso   1.000  C
  C5       1.0000 0.61999  0.79334  0.79334  Biso   1.000  C
  C6       1.0000 0.79334  0.61999  0.79333  Biso   1.000  C
  C7       1.0000 0.79334  0.79333  0.79334  Biso   1.000  C
  C8       1.0000 0.79334  0.79333  0.61999  Biso   1.000  C
  C9       1.0000 0.04520  0.56580  0.04520  Biso   1.000  C
  C10      1.0000 0.56580  0.04520  0.34380  Biso   1.000  C
  C11      1.0000 0.04520  0.34380  0.04520  Biso   1.000  C
  C12      1.0000 0.34380  0.04520  0.56580  Biso   1.000  C
  C13      1.0000 0.04520  0.04520  0.34380  Biso   1.000  C
  C14      1.0000 0.56580  0.34380  0.04520  Biso   1.000  C
  C15      1.0000 0.04520  0.04520  0.56580  Biso   1.000  C
  C16      1.0000 0.34380  0.56580  0.04520  Biso   1.000  C
  C17      1.0000 0.04520  0.34380  0.56580  Biso   1.000  C
  C18      1.0000 0.56580  0.04520  0.04520  Biso   1.000  C
  C19      1.0000 0.04520  0.56580  0.34380  Biso   1.000  C
  C20      1.0000 0.34380  0.04520  0.04520  Biso   1.000  C
  C21      1.0000 0.43420  0.95480  0.95480  Biso   1.000  C
  C22      1.0000 0.95480  0.43420  0.65620  Biso   1.000  C
  C23      1.0000 0.65620  0.95480  0.95480  Biso   1.000  C
  C24      1.0000 0.95480  0.65620  0.43420  Biso   1.000  C
  C25      1.0000 0.95480  0.95480  0.65620  Biso   1.000  C
  C26      1.0000 0.65620  0.43420  0.95480  Biso   1.000  C
  C27      1.0000 0.95480  0.95480  0.43420  Biso   1.000  C
  C28      1.0000 0.43420  0.65620  0.95480  Biso   1.000  C
  C29      1.0000 0.65620  0.95480  0.43420  Biso   1.000  C
  C30      1.0000 0.95480  0.43420  0.95480  Biso   1.000  C
  C31      1.0000 0.43420  0.95480  0.65620  Biso   1.000  C
  C32      1.0000 0.95480  0.65620  0.95480  Biso   1.000  C
  C33      1.0000 0.02688  0.53930  0.02688  Biso   1.000  C
  C34      1.0000 0.53930  0.02688  0.40694  Biso   1.000  C
  C35      1.0000 0.02688  0.40694  0.02688  Biso   1.000  C
  C36      1.0000 0.40694  0.02688  0.53930  Biso   1.000  C
  C37      1.0000 0.02688  0.02688  0.40694  Biso   1.000  C
  C38      1.0000 0.53930  0.40694  0.02688  Biso   1.000  C
  C39      1.0000 0.02688  0.02688  0.53930  Biso   1.000  C
  C40      1.0000 0.40694  0.53930  0.02688  Biso   1.000  C
  C41      1.0000 0.02688  0.40694  0.53930  Biso   1.000  C
  C42      1.0000 0.53930  0.02688  0.02688  Biso   1.000  C
  C43      1.0000 0.02688  0.53930  0.40694  Biso   1.000  C
  C44      1.0000 0.40694  0.02688  0.02688  Biso   1.000  C
  C45      1.0000 0.46070  0.97312  0.97312  Biso   1.000  C
  C46      1.0000 0.97312  0.46070  0.59306  Biso   1.000  C
  C47      1.0000 0.59306  0.97312  0.97312  Biso   1.000  C
  C48      1.0000 0.97312  0.59306  0.46070  Biso   1.000  C
  C49      1.0000 0.97312  0.97312  0.59306  Biso   1.000  C
  C50      1.0000 0.59306  0.46070  0.97312  Biso   1.000  C
  C51      1.0000 0.97312  0.97312  0.46070  Biso   1.000  C
  C52      1.0000 0.46070  0.59306  0.97312  Biso   1.000  C
  C53      1.0000 0.59306  0.97312  0.46070  Biso   1.000  C
  C54      1.0000 0.97312  0.46070  0.97312  Biso   1.000  C
  C55      1.0000 0.46070  0.97312  0.59306  Biso   1.000  C
  C56      1.0000 0.97312  0.59306  0.97312  Biso   1.000  C
  C57      1.0000 0.11142  0.38858  0.11142  Biso   1.000  C
  C58      1.0000 0.05381  0.44619  0.05381  Biso   1.000  C
  C59      1.0000 0.38858  0.11142  0.38858  Biso   1.000  C
  C60      1.0000 0.44619  0.05381  0.44619  Biso   1.000  C
  C61      1.0000 0.11142  0.11142  0.38858  Biso   1.000  C
  C62      1.0000 0.05381  0.05381  0.44619  Biso   1.000  C
  C63      1.0000 0.38858  0.38858  0.11142  Biso   1.000  C
  C64      1.0000 0.44619  0.44619  0.05381  Biso   1.000  C
  C65      1.0000 0.11142  0.38858  0.38858  Biso   1.000  C
  C66      1.0000 0.05381  0.44619  0.44619  Biso   1.000  C
  C67      1.0000 0.38858  0.11142  0.11142  Biso   1.000  C
  C68      1.0000 0.44619  0.05381  0.05381  Biso   1.000  C
  C69      1.0000 0.61142  0.88858  0.88858  Biso   1.000  C
  C70      1.0000 0.55381  0.94619  0.94619  Biso   1.000  C
  C71      1.0000 0.88858  0.61142  0.61142  Biso   1.000  C
  C72      1.0000 0.94619  0.55381  0.55381  Biso   1.000  C
  C73      1.0000 0.88858  0.88858  0.61142  Biso   1.000  C
  C74      1.0000 0.94619  0.94619  0.55381  Biso   1.000  C
  C75      1.0000 0.61142  0.61142  0.88858  Biso   1.000  C
  C76      1.0000 0.55381  0.55381  0.94619  Biso   1.000  C
  C77      1.0000 0.61142  0.88858  0.61142  Biso   1.000  C
  C78      1.0000 0.55381  0.94619  0.55381  Biso   1.000  C
  C79      1.0000 0.88858  0.61142  0.88858  Biso   1.000  C
  C80      1.0000 0.94619  0.55381  0.94619  Biso   1.000  C
  C81      1.0000 0.25000  0.25000  0.25000  Biso   1.000  C
  C82      1.0000 0.75000  0.75000  0.75000  Biso   1.000  C
  C83      1.0000 0.13369  0.42773  0.13369  Biso   1.000  C
  C84      1.0000 0.42773  0.13369  0.30489  Biso   1.000  C
  C85      1.0000 0.13369  0.30489  0.13369  Biso   1.000  C
  C86      1.0000 0.30489  0.13369  0.42773  Biso   1.000  C
  C87      1.0000 0.13369  0.13369  0.30489  Biso   1.000  C
  C88      1.0000 0.42773  0.30489  0.13369  Biso   1.000  C
  C89      1.0000 0.13369  0.13369  0.42773  Biso   1.000  C
  C90      1.0000 0.30489  0.42773  0.13369  Biso   1.000  C
  C91      1.0000 0.13369  0.30489  0.42773  Biso   1.000  C
  C92      1.0000 0.42773  0.13369  0.13369  Biso   1.000  C
  C93      1.0000 0.13369  0.42773  0.30489  Biso   1.000  C
  C94      1.0000 0.30489  0.13369  0.13369  Biso   1.000  C
  C95      1.0000 0.57227  0.86631  0.86631  Biso   1.000  C
  C96      1.0000 0.86631  0.57227  0.69511  Biso   1.000  C
  C97      1.0000 0.69511  0.86631  0.86631  Biso   1.000  C
  C98      1.0000 0.86631  0.69511  0.57227  Biso   1.000  C
  C99      1.0000 0.86631  0.86631  0.69511  Biso   1.000  C
  C100     1.0000 0.69511  0.57227  0.86631  Biso   1.000  C
  C101     1.0000 0.86631  0.86631  0.57227  Biso   1.000  C
  C102     1.0000 0.57227  0.69511  0.86631  Biso   1.000  C
  C103     1.0000 0.69511  0.86631  0.57227  Biso   1.000  C
  C104     1.0000 0.86631  0.57227  0.86631  Biso   1.000  C
  C105     1.0000 0.57227  0.86631  0.69511  Biso   1.000  C
  C106     1.0000 0.86631  0.69511  0.86631  Biso   1.000  C
  O1       1.0000 0.90652  0.59667  0.59020  Biso   1.000  O
  O2       1.0000 0.32263  0.18044  0.00651  Biso   1.000  O
  O3       1.0000 0.32263  0.00672  0.00651  Biso   1.000  O
  O4       1.0000 0.90652  0.42295  0.59020  Biso   1.000  O
  O5       1.0000 0.90607  0.59700  0.41625  Biso   1.000  O
  O6       1.0000 0.73242  0.59681  0.59030  Biso   1.000  O
  O7       1.0000 0.32309  0.00639  0.18046  Biso   1.000  O
  O8       1.0000 0.49674  0.00657  0.00641  Biso   1.000  O
  O9       1.0000 0.07522  0.23786  0.44758  Biso   1.000  O
  O10      1.0000 0.06226  0.45791  0.23726  Biso   1.000  O
  O11      1.0000 0.77337  0.23893  0.74930  Biso   1.000  O
  O12      1.0000 0.55063  0.45540  0.75159  Biso   1.000  O
  O13      1.0000 0.07603  0.45738  0.74682  Biso   1.000  O
  O14      1.0000 0.15394  0.84769  0.14913  Biso   1.000  O
  O15      1.0000 0.16690  0.84450  0.35946  Biso   1.000  O
  O16      1.0000 0.45579  0.84860  0.84741  Biso   1.000  O
  O17      1.0000 0.67853  0.84463  0.84513  Biso   1.000  O
  O18      1.0000 0.15312  0.36724  0.84990  Biso   1.000  O
  O19      1.0000 0.15393  0.36553  0.14913  Biso   1.000  O
  O20      1.0000 0.16690  0.14548  0.35946  Biso   1.000  O
  O21      1.0000 0.45578  0.36445  0.84741  Biso   1.000  O
  O22      1.0000 0.67853  0.14799  0.84513  Biso   1.000  O
  O23      1.0000 0.15313  0.14601  0.84990  Biso   1.000  O
  O24      1.0000 0.07522  0.75570  0.44758  Biso   1.000  O
  O25      1.0000 0.06226  0.75889  0.23726  Biso   1.000  O
  O26      1.0000 0.77337  0.75479  0.74930  Biso   1.000  O
  O27      1.0000 0.55063  0.75876  0.75159  Biso   1.000  O
  O28      1.0000 0.07603  0.23615  0.74682  Biso   1.000  O
  O29      1.0000 0.55151  0.75758  0.44967  Biso   1.000  O
  O30      1.0000 0.76397  0.75869  0.23497  Biso   1.000  O
  O31      1.0000 0.67765  0.84581  0.14705  Biso   1.000  O
  O32      1.0000 0.46519  0.84470  0.36174  Biso   1.000  O
  O33      1.0000 0.00018  0.41449  0.41142  Biso   1.000  O
  O34      1.0000 0.05938  0.35678  0.35061  Biso   1.000  O
  O35      1.0000 0.09290  0.26339  0.38578  Biso   1.000  O
  O36      1.0000 0.08153  0.39622  0.26309  Biso   1.000  O
  O37      1.0000 0.72297  0.41765  0.68671  Biso   1.000  O
  O38      1.0000 0.66923  0.35954  0.74165  Biso   1.000  O
  O39      1.0000 0.71159  0.26496  0.76719  Biso   1.000  O
  O40      1.0000 0.57815  0.39381  0.76897  Biso   1.000  O
  O41      1.0000 0.09182  0.39570  0.76679  Biso   1.000  O
  O42      1.0000 0.22897  0.91315  0.18530  Biso   1.000  O
  O43      1.0000 0.16977  0.85385  0.24610  Biso   1.000  O
  O44      1.0000 0.13626  0.82911  0.21093  Biso   1.000  O
  O45      1.0000 0.14763  0.82792  0.33363  Biso   1.000  O
  O46      1.0000 0.50619  0.91436  0.91000  Biso   1.000  O
  O47      1.0000 0.55993  0.85744  0.85506  Biso   1.000  O
  O48      1.0000 0.51757  0.83072  0.82953  Biso   1.000  O
  O49      1.0000 0.65101  0.82794  0.82774  Biso   1.000  O
  O50      1.0000 0.13733  0.34131  0.82993  Biso   1.000  O
  O51      1.0000 0.22897  0.18890  0.18530  Biso   1.000  O
  O52      1.0000 0.16978  0.24661  0.24610  Biso   1.000  O
  O53      1.0000 0.13626  0.34000  0.21093  Biso   1.000  O
  O54      1.0000 0.14763  0.20717  0.33363  Biso   1.000  O
  O55      1.0000 0.50619  0.18574  0.91000  Biso   1.000  O
  O56      1.0000 0.55993  0.24385  0.85506  Biso   1.000  O
  O57      1.0000 0.51757  0.33843  0.82953  Biso   1.000  O
  O58      1.0000 0.65101  0.20958  0.82774  Biso   1.000  O
  O59      1.0000 0.13733  0.20769  0.82993  Biso   1.000  O
  O60      1.0000 0.00018  0.69024  0.41142  Biso   1.000  O
  O61      1.0000 0.05938  0.74954  0.35061  Biso   1.000  O
  O62      1.0000 0.09290  0.77427  0.38578  Biso   1.000  O
  O63      1.0000 0.08153  0.77547  0.26309  Biso   1.000  O
  O64      1.0000 0.72297  0.68903  0.68671  Biso   1.000  O
  O65      1.0000 0.66923  0.74595  0.74165  Biso   1.000  O
  O66      1.0000 0.71159  0.77266  0.76719  Biso   1.000  O
  O67      1.0000 0.57815  0.77545  0.76897  Biso   1.000  O
  O68      1.0000 0.09183  0.26208  0.76679  Biso   1.000  O
  O69      1.0000 0.72961  0.69103  0.40466  Biso   1.000  O
  O70      1.0000 0.66782  0.74785  0.35280  Biso   1.000  O
  O71      1.0000 0.57853  0.77487  0.38807  Biso   1.000  O
  O72      1.0000 0.70229  0.77607  0.26190  Biso   1.000  O
  O73      1.0000 0.99871  0.41944  0.67876  Biso   1.000  O
  O74      1.0000 0.05831  0.35815  0.74175  Biso   1.000  O
  O75      1.0000 0.49955  0.91236  0.19205  Biso   1.000  O
  O76      1.0000 0.56134  0.85554  0.24391  Biso   1.000  O
  O77      1.0000 0.65063  0.82852  0.20865  Biso   1.000  O
  O78      1.0000 0.52687  0.82732  0.33482  Biso   1.000  O
  O79      1.0000 0.23045  0.18395  0.91795  Biso   1.000  O
  O80      1.0000 0.17085  0.24524  0.85496  Biso   1.000  O
  O81      1.0000 0.98022  0.49932  0.36582  Biso   1.000  O
  O82      1.0000 0.98151  0.37088  0.49507  Biso   1.000  O
  O83      1.0000 0.68333  0.50030  0.66039  Biso   1.000  O
  O84      1.0000 0.80869  0.37385  0.66436  Biso   1.000  O
  O85      1.0000 0.97973  0.50129  0.66158  Biso   1.000  O
  O86      1.0000 0.24894  0.93242  0.23090  Biso   1.000  O
  O87      1.0000 0.24764  0.93451  0.10165  Biso   1.000  O
  O88      1.0000 0.54583  0.93104  0.93633  Biso   1.000  O
  O89      1.0000 0.42047  0.93393  0.93236  Biso   1.000  O
  O90      1.0000 0.24942  0.22964  0.93514  Biso   1.000  O
  O91      1.0000 0.24894  0.10407  0.23090  Biso   1.000  O
  O92      1.0000 0.24764  0.23251  0.10165  Biso   1.000  O
  O93      1.0000 0.54583  0.10309  0.93633  Biso   1.000  O
  O94      1.0000 0.42047  0.22954  0.93236  Biso   1.000  O
  O95      1.0000 0.24942  0.10210  0.93514  Biso   1.000  O
  O96      1.0000 0.98022  0.67097  0.36582  Biso   1.000  O
  O97      1.0000 0.98151  0.66888  0.49507  Biso   1.000  O
  O98      1.0000 0.68333  0.67234  0.66039  Biso   1.000  O
  O99      1.0000 0.80869  0.66946  0.66436  Biso   1.000  O
  O100     1.0000 0.97973  0.37375  0.66158  Biso   1.000  O
  O101     1.0000 0.86361  0.55315  0.54643  Biso   1.000  O
  O102     1.0000 0.80987  0.66998  0.36651  Biso   1.000  O
  O103     1.0000 0.68471  0.67225  0.48712  Biso   1.000  O
  O104     1.0000 0.36555  0.05024  0.05028  Biso   1.000  O
  O105     1.0000 0.41929  0.93341  0.23020  Biso   1.000  O
  O106     1.0000 0.54444  0.93113  0.10959  Biso   1.000  O
