data_image0
_cell_length_a       18.283
_cell_length_b       18.283
_cell_length_c       18.283
_cell_angle_alpha    60
_cell_angle_beta     60
_cell_angle_gamma    60

_symmetry_space_group_name_H-M    "P 1"
_symmetry_int_tables_number       1

loop_
  _symmetry_equiv_pos_as_xyz
  'x, y, z'

loop_
  _atom_site_label
  _atom_site_occupancy
  _atom_site_fract_x
  _atom_site_fract_y
  _atom_site_fract_z
  _atom_site_thermal_displace_type
  _atom_site_B_iso_or_equiv
  _atom_site_type_symbol
  Zn1      1.0000 0.20657  0.38031  0.20656  Biso   1.000  Zn
  Zn2      1.0000 0.38032  0.20656  0.20656  Biso   1.000  Zn
  Zn3      1.0000 0.20657  0.20656  0.20656  Biso   1.000  Zn
  Zn4      1.0000 0.20657  0.20656  0.38031  Biso   1.000  Zn
  Zn5      1.0000 0.61968  0.79344  0.79344  Biso   1.000  Zn
  Zn6      1.0000 0.79343  0.61969  0.79344  Biso   1.000  Zn
  Zn7      1.0000 0.79343  0.79344  0.79344  Biso   1.000  Zn
  Zn8      1.0000 0.79343  0.79344  0.61969  Biso   1.000  Zn
  H1       1.0000 0.04500  0.56540  0.04500  Biso   1.000  H
  H2       1.0000 0.56540  0.04500  0.34460  Biso   1.000  H
  H3       1.0000 0.04500  0.34460  0.04500  Biso   1.000  H
  H4       1.0000 0.34460  0.04500  0.56540  Biso   1.000  H
  H5       1.0000 0.04500  0.04500  0.34460  Biso   1.000  H
  H6       1.0000 0.56540  0.34460  0.04500  Biso   1.000  H
  H7       1.0000 0.04500  0.04500  0.56540  Biso   1.000  H
  H8       1.0000 0.34460  0.56540  0.04500  Biso   1.000  H
  H9       1.0000 0.04500  0.34460  0.56540  Biso   1.000  H
  H10      1.0000 0.56540  0.04500  0.04500  Biso   1.000  H
  H11      1.0000 0.04500  0.56540  0.34460  Biso   1.000  H
  H12      1.0000 0.34460  0.04500  0.04500  Biso   1.000  H
  H13      1.0000 0.43460  0.95500  0.95500  Biso   1.000  H
  H14      1.0000 0.95500  0.43460  0.65540  Biso   1.000  H
  H15      1.0000 0.65540  0.95500  0.95500  Biso   1.000  H
  H16      1.0000 0.95500  0.65540  0.43460  Biso   1.000  H
  H17      1.0000 0.95500  0.95500  0.65540  Biso   1.000  H
  H18      1.0000 0.65540  0.43460  0.95500  Biso   1.000  H
  H19      1.0000 0.95500  0.95500  0.43460  Biso   1.000  H
  H20      1.0000 0.43460  0.65540  0.95500  Biso   1.000  H
  H21      1.0000 0.65540  0.95500  0.43460  Biso   1.000  H
  H22      1.0000 0.95500  0.43460  0.95500  Biso   1.000  H
  H23      1.0000 0.43460  0.95500  0.65540  Biso   1.000  H
  H24      1.0000 0.95500  0.65540  0.95500  Biso   1.000  H
  C1       1.0000 0.02670  0.53864  0.02670  Biso   1.000  C
  C2       1.0000 0.53864  0.02670  0.40796  Biso   1.000  C
  C3       1.0000 0.02670  0.40796  0.02670  Biso   1.000  C
  C4       1.0000 0.40796  0.02670  0.53864  Biso   1.000  C
  C5       1.0000 0.02670  0.02670  0.40796  Biso   1.000  C
  C6       1.0000 0.53864  0.40796  0.02670  Biso   1.000  C
  C7       1.0000 0.02670  0.02670  0.53864  Biso   1.000  C
  C8       1.0000 0.40796  0.53864  0.02670  Biso   1.000  C
  C9       1.0000 0.02670  0.40796  0.53864  Biso   1.000  C
  C10      1.0000 0.53864  0.02670  0.02670  Biso   1.000  C
  C11      1.0000 0.02670  0.53864  0.40796  Biso   1.000  C
  C12      1.0000 0.40796  0.02670  0.02670  Biso   1.000  C
  C13      1.0000 0.46136  0.97330  0.97330  Biso   1.000  C
  C14      1.0000 0.97330  0.46136  0.59204  Biso   1.000  C
  C15      1.0000 0.59204  0.97330  0.97330  Biso   1.000  C
  C16      1.0000 0.97330  0.59204  0.46136  Biso   1.000  C
  C17      1.0000 0.97330  0.97330  0.59204  Biso   1.000  C
  C18      1.0000 0.59204  0.46136  0.97330  Biso   1.000  C
  C19      1.0000 0.97330  0.97330  0.46136  Biso   1.000  C
  C20      1.0000 0.46136  0.59204  0.97330  Biso   1.000  C
  C21      1.0000 0.59204  0.97330  0.46136  Biso   1.000  C
  C22      1.0000 0.97330  0.46136  0.97330  Biso   1.000  C
  C23      1.0000 0.46136  0.97330  0.59204  Biso   1.000  C
  C24      1.0000 0.97330  0.59204  0.97330  Biso   1.000  C
  C25      1.0000 0.11148  0.38852  0.11148  Biso   1.000  C
  C26      1.0000 0.05372  0.44628  0.05372  Biso   1.000  C
  C27      1.0000 0.38852  0.11148  0.38852  Biso   1.000  C
  C28      1.0000 0.44628  0.05372  0.44628  Biso   1.000  C
  C29      1.0000 0.11148  0.11148  0.38852  Biso   1.000  C
  C30      1.0000 0.05372  0.05372  0.44628  Biso   1.000  C
  C31      1.0000 0.38852  0.38852  0.11148  Biso   1.000  C
  C32      1.0000 0.44628  0.44628  0.05372  Biso   1.000  C
  C33      1.0000 0.11148  0.38852  0.38852  Biso   1.000  C
  C34      1.0000 0.05372  0.44628  0.44628  Biso   1.000  C
  C35      1.0000 0.38852  0.11148  0.11148  Biso   1.000  C
  C36      1.0000 0.44628  0.05372  0.05372  Biso   1.000  C
  C37      1.0000 0.61148  0.88852  0.88852  Biso   1.000  C
  C38      1.0000 0.55372  0.94628  0.94628  Biso   1.000  C
  C39      1.0000 0.88852  0.61148  0.61148  Biso   1.000  C
  C40      1.0000 0.94628  0.55372  0.55372  Biso   1.000  C
  C41      1.0000 0.88852  0.88852  0.61148  Biso   1.000  C
  C42      1.0000 0.94628  0.94628  0.55372  Biso   1.000  C
  C43      1.0000 0.61148  0.61148  0.88852  Biso   1.000  C
  C44      1.0000 0.55372  0.55372  0.94628  Biso   1.000  C
  C45      1.0000 0.61148  0.88852  0.61148  Biso   1.000  C
  C46      1.0000 0.55372  0.94628  0.55372  Biso   1.000  C
  C47      1.0000 0.88852  0.61148  0.88852  Biso   1.000  C
  C48      1.0000 0.94628  0.55372  0.94628  Biso   1.000  C
  O1       1.0000 0.25000  0.25000  0.25000  Biso   1.000  O
  O2       1.0000 0.75000  0.75000  0.75000  Biso   1.000  O
  O3       1.0000 0.13373  0.42751  0.13373  Biso   1.000  O
  O4       1.0000 0.42751  0.13373  0.30503  Biso   1.000  O
  O5       1.0000 0.13373  0.30503  0.13373  Biso   1.000  O
  O6       1.0000 0.30503  0.13373  0.42751  Biso   1.000  O
  O7       1.0000 0.13373  0.13373  0.30503  Biso   1.000  O
  O8       1.0000 0.42751  0.30503  0.13373  Biso   1.000  O
  O9       1.0000 0.13373  0.13373  0.42751  Biso   1.000  O
  O10      1.0000 0.30503  0.42751  0.13373  Biso   1.000  O
  O11      1.0000 0.13373  0.30503  0.42751  Biso   1.000  O
  O12      1.0000 0.42751  0.13373  0.13373  Biso   1.000  O
  O13      1.0000 0.13373  0.42751  0.30503  Biso   1.000  O
  O14      1.0000 0.30503  0.13373  0.13373  Biso   1.000  O
  O15      1.0000 0.57249  0.86627  0.86627  Biso   1.000  O
  O16      1.0000 0.86627  0.57249  0.69497  Biso   1.000  O
  O17      1.0000 0.69497  0.86627  0.86627  Biso   1.000  O
  O18      1.0000 0.86627  0.69497  0.57249  Biso   1.000  O
  O19      1.0000 0.86627  0.86627  0.69497  Biso   1.000  O
  O20      1.0000 0.69497  0.57249  0.86627  Biso   1.000  O
  O21      1.0000 0.86627  0.86627  0.57249  Biso   1.000  O
  O22      1.0000 0.57249  0.69497  0.86627  Biso   1.000  O
  O23      1.0000 0.69497  0.86627  0.57249  Biso   1.000  O
  O24      1.0000 0.86627  0.57249  0.86627  Biso   1.000  O
  O25      1.0000 0.57249  0.86627  0.69497  Biso   1.000  O
  O26      1.0000 0.86627  0.69497  0.86627  Biso   1.000  O
  Zn9      1.0000 0.90947  0.59210  0.58887  Biso   1.000  Zn
  Zn10     1.0000 0.32368  0.17777  0.00328  Biso   1.000  Zn
  Zn11     1.0000 0.32368  0.00349  0.00328  Biso   1.000  Zn
  Zn12     1.0000 0.90947  0.41782  0.58887  Biso   1.000  Zn
  Zn13     1.0000 0.90901  0.59244  0.41436  Biso   1.000  Zn
  Zn14     1.0000 0.73480  0.59225  0.58897  Biso   1.000  Zn
  Zn15     1.0000 0.32414  0.00316  0.17779  Biso   1.000  Zn
  Zn16     1.0000 0.49835  0.00334  0.00318  Biso   1.000  Zn
  H25      1.0000 0.07547  0.23538  0.44578  Biso   1.000  H
  H26      1.0000 0.06571  0.45289  0.23478  Biso   1.000  H
  H27      1.0000 0.77264  0.23646  0.74849  Biso   1.000  H
  H28      1.0000 0.55242  0.45037  0.75078  Biso   1.000  H
  H29      1.0000 0.07628  0.45237  0.74600  Biso   1.000  H
  H30      1.0000 0.15769  0.84395  0.14637  Biso   1.000  H
  H31      1.0000 0.16744  0.84075  0.35737  Biso   1.000  H
  H32      1.0000 0.46052  0.84486  0.84366  Biso   1.000  H
  H33      1.0000 0.68073  0.84087  0.84137  Biso   1.000  H
  H34      1.0000 0.15687  0.36193  0.84616  Biso   1.000  H
  H35      1.0000 0.15769  0.36022  0.14637  Biso   1.000  H
  H36      1.0000 0.16744  0.14270  0.35737  Biso   1.000  H
  H37      1.0000 0.46052  0.35914  0.84366  Biso   1.000  H
  H38      1.0000 0.68073  0.14522  0.84137  Biso   1.000  H
  H39      1.0000 0.15688  0.14323  0.84616  Biso   1.000  H
  H40      1.0000 0.07547  0.75165  0.44578  Biso   1.000  H
  H41      1.0000 0.06571  0.75485  0.23478  Biso   1.000  H
  H42      1.0000 0.77263  0.75074  0.74849  Biso   1.000  H
  H43      1.0000 0.55242  0.75472  0.75078  Biso   1.000  H
  H44      1.0000 0.07628  0.23367  0.74600  Biso   1.000  H
  H45      1.0000 0.55330  0.75354  0.44788  Biso   1.000  H
  H46      1.0000 0.76645  0.75465  0.23249  Biso   1.000  H
  H47      1.0000 0.67985  0.84205  0.14428  Biso   1.000  H
  H48      1.0000 0.46670  0.84095  0.35967  Biso   1.000  H
  C49      1.0000 0.00344  0.40933  0.40950  Biso   1.000  C
  C50      1.0000 0.06283  0.35144  0.34850  Biso   1.000  C
  C51      1.0000 0.09320  0.26099  0.38379  Biso   1.000  C
  C52      1.0000 0.08504  0.39100  0.26069  Biso   1.000  C
  C53      1.0000 0.72532  0.41251  0.68569  Biso   1.000  C
  C54      1.0000 0.67141  0.35421  0.74081  Biso   1.000  C
  C55      1.0000 0.71065  0.26257  0.76643  Biso   1.000  C
  C56      1.0000 0.58003  0.38859  0.76822  Biso   1.000  C
  C57      1.0000 0.09212  0.39048  0.76603  Biso   1.000  C
  C58      1.0000 0.22972  0.90962  0.18265  Biso   1.000  C
  C59      1.0000 0.17033  0.85012  0.24365  Biso   1.000  C
  C60      1.0000 0.13995  0.82531  0.20836  Biso   1.000  C
  C61      1.0000 0.14811  0.82411  0.33146  Biso   1.000  C
  C62      1.0000 0.50784  0.91083  0.90646  Biso   1.000  C
  C63      1.0000 0.56175  0.85373  0.85134  Biso   1.000  C
  C64      1.0000 0.52250  0.82692  0.82572  Biso   1.000  C
  C65      1.0000 0.65313  0.82413  0.82393  Biso   1.000  C
  C66      1.0000 0.14103  0.33592  0.82612  Biso   1.000  C
  C67      1.0000 0.22972  0.18626  0.18265  Biso   1.000  C
  C68      1.0000 0.17033  0.24416  0.24365  Biso   1.000  C
  C69      1.0000 0.13995  0.33460  0.20836  Biso   1.000  C
  C70      1.0000 0.14811  0.20459  0.33146  Biso   1.000  C
  C71      1.0000 0.50784  0.18309  0.90646  Biso   1.000  C
  C72      1.0000 0.56175  0.24139  0.85134  Biso   1.000  C
  C73      1.0000 0.52250  0.33303  0.82572  Biso   1.000  C
  C74      1.0000 0.65313  0.20701  0.82393  Biso   1.000  C
  C75      1.0000 0.14103  0.20512  0.82612  Biso   1.000  C
  C76      1.0000 0.00344  0.68598  0.40950  Biso   1.000  C
  C77      1.0000 0.06283  0.74548  0.34850  Biso   1.000  C
  C78      1.0000 0.09320  0.77029  0.38379  Biso   1.000  C
  C79      1.0000 0.08505  0.77149  0.26069  Biso   1.000  C
  C80      1.0000 0.72532  0.68477  0.68569  Biso   1.000  C
  C81      1.0000 0.67141  0.74187  0.74081  Biso   1.000  C
  C82      1.0000 0.71065  0.76867  0.76643  Biso   1.000  C
  C83      1.0000 0.58003  0.77146  0.76822  Biso   1.000  C
  C84      1.0000 0.09213  0.25968  0.76603  Biso   1.000  C
  C85      1.0000 0.73198  0.68678  0.40272  Biso   1.000  C
  C86      1.0000 0.66999  0.74378  0.35070  Biso   1.000  C
  C87      1.0000 0.58041  0.77089  0.38608  Biso   1.000  C
  C88      1.0000 0.70457  0.77209  0.25950  Biso   1.000  C
  C89      1.0000 0.00195  0.41430  0.67772  Biso   1.000  C
  C90      1.0000 0.06175  0.35281  0.74091  Biso   1.000  C
  C91      1.0000 0.50117  0.90882  0.18943  Biso   1.000  C
  C92      1.0000 0.56316  0.85181  0.24146  Biso   1.000  C
  C93      1.0000 0.65275  0.82471  0.20607  Biso   1.000  C
  C94      1.0000 0.52859  0.82351  0.33266  Biso   1.000  C
  C95      1.0000 0.23120  0.18129  0.91443  Biso   1.000  C
  C96      1.0000 0.17141  0.24278  0.85124  Biso   1.000  C
  O27      1.0000 0.98340  0.49444  0.36375  Biso   1.000  O
  O28      1.0000 0.98470  0.36558  0.49343  Biso   1.000  O
  O29      1.0000 0.68555  0.49542  0.65928  Biso   1.000  O
  O30      1.0000 0.81132  0.36856  0.66327  Biso   1.000  O
  O31      1.0000 0.98292  0.49642  0.66048  Biso   1.000  O
  O32      1.0000 0.24975  0.92895  0.22840  Biso   1.000  O
  O33      1.0000 0.24845  0.93105  0.09873  Biso   1.000  O
  O34      1.0000 0.54760  0.92757  0.93287  Biso   1.000  O
  O35      1.0000 0.42184  0.93046  0.92888  Biso   1.000  O
  O36      1.0000 0.25024  0.22713  0.93167  Biso   1.000  O
  O37      1.0000 0.24975  0.10115  0.22840  Biso   1.000  O
  O38      1.0000 0.24845  0.23002  0.09873  Biso   1.000  O
  O39      1.0000 0.54760  0.10017  0.93287  Biso   1.000  O
  O40      1.0000 0.42184  0.22704  0.92888  Biso   1.000  O
  O41      1.0000 0.25023  0.09918  0.93167  Biso   1.000  O
  O42      1.0000 0.98340  0.66665  0.36375  Biso   1.000  O
  O43      1.0000 0.98471  0.66455  0.49343  Biso   1.000  O
  O44      1.0000 0.68555  0.66803  0.65928  Biso   1.000  O
  O45      1.0000 0.81132  0.66514  0.66327  Biso   1.000  O
  O46      1.0000 0.98292  0.36846  0.66048  Biso   1.000  O
  O47      1.0000 0.86642  0.54845  0.54496  Biso   1.000  O
  O48      1.0000 0.81250  0.66565  0.36445  Biso   1.000  O
  O49      1.0000 0.68694  0.66794  0.48545  Biso   1.000  O
  O50      1.0000 0.36674  0.04715  0.04719  Biso   1.000  O
  O51      1.0000 0.42066  0.92995  0.22770  Biso   1.000  O
  O52      1.0000 0.54621  0.92766  0.10670  Biso   1.000  O
