data_image0
_cell_length_a       18.2943
_cell_length_b       18.2943
_cell_length_c       18.2943
_cell_angle_alpha    60
_cell_angle_beta     60
_cell_angle_gamma    60

_symmetry_space_group_name_H-M    "P 1"
_symmetry_int_tables_number       1

loop_
  _symmetry_equiv_pos_as_xyz
  'x, y, z'

loop_
  _atom_site_label
  _atom_site_occupancy
  _atom_site_fract_x
  _atom_site_fract_y
  _atom_site_fract_z
  _atom_site_thermal_displace_type
  _atom_site_B_iso_or_equiv
  _atom_site_type_symbol
  Zn1      1.0000 0.20660  0.38020  0.20660  Biso   1.000  Zn
  Zn2      1.0000 0.38020  0.20660  0.20660  Biso   1.000  Zn
  Zn3      1.0000 0.20660  0.20660  0.20660  Biso   1.000  Zn
  Zn4      1.0000 0.20660  0.20660  0.38020  Biso   1.000  Zn
  Zn5      1.0000 0.61980  0.79340  0.79340  Biso   1.000  Zn
  Zn6      1.0000 0.79340  0.61980  0.79340  Biso   1.000  Zn
  Zn7      1.0000 0.79340  0.79340  0.79340  Biso   1.000  Zn
  Zn8      1.0000 0.79340  0.79340  0.61980  Biso   1.000  Zn
  H1       1.0000 0.04510  0.56550  0.04510  Biso   1.000  H
  H2       1.0000 0.56550  0.04510  0.34430  Biso   1.000  H
  H3       1.0000 0.04510  0.34430  0.04510  Biso   1.000  H
  H4       1.0000 0.34430  0.04510  0.56550  Biso   1.000  H
  H5       1.0000 0.04510  0.04510  0.34430  Biso   1.000  H
  H6       1.0000 0.56550  0.34430  0.04510  Biso   1.000  H
  H7       1.0000 0.04510  0.04510  0.56550  Biso   1.000  H
  H8       1.0000 0.34430  0.56550  0.04510  Biso   1.000  H
  H9       1.0000 0.04510  0.34430  0.56550  Biso   1.000  H
  H10      1.0000 0.56550  0.04510  0.04510  Biso   1.000  H
  H11      1.0000 0.04510  0.56550  0.34430  Biso   1.000  H
  H12      1.0000 0.34430  0.04510  0.04510  Biso   1.000  H
  H13      1.0000 0.43450  0.95490  0.95490  Biso   1.000  H
  H14      1.0000 0.95490  0.43450  0.65570  Biso   1.000  H
  H15      1.0000 0.65570  0.95490  0.95490  Biso   1.000  H
  H16      1.0000 0.95490  0.65570  0.43450  Biso   1.000  H
  H17      1.0000 0.95490  0.95490  0.65570  Biso   1.000  H
  H18      1.0000 0.65570  0.43450  0.95490  Biso   1.000  H
  H19      1.0000 0.95490  0.95490  0.43450  Biso   1.000  H
  H20      1.0000 0.43450  0.65570  0.95490  Biso   1.000  H
  H21      1.0000 0.65570  0.95490  0.43450  Biso   1.000  H
  H22      1.0000 0.95490  0.43450  0.95490  Biso   1.000  H
  H23      1.0000 0.43450  0.95490  0.65570  Biso   1.000  H
  H24      1.0000 0.95490  0.65570  0.95490  Biso   1.000  H
  C1       1.0000 0.02675  0.53889  0.02675  Biso   1.000  C
  C2       1.0000 0.53889  0.02675  0.40761  Biso   1.000  C
  C3       1.0000 0.02675  0.40761  0.02675  Biso   1.000  C
  C4       1.0000 0.40761  0.02675  0.53889  Biso   1.000  C
  C5       1.0000 0.02675  0.02675  0.40761  Biso   1.000  C
  C6       1.0000 0.53889  0.40761  0.02675  Biso   1.000  C
  C7       1.0000 0.02675  0.02675  0.53889  Biso   1.000  C
  C8       1.0000 0.40761  0.53889  0.02675  Biso   1.000  C
  C9       1.0000 0.02675  0.40761  0.53889  Biso   1.000  C
  C10      1.0000 0.53889  0.02675  0.02675  Biso   1.000  C
  C11      1.0000 0.02675  0.53889  0.40761  Biso   1.000  C
  C12      1.0000 0.40761  0.02675  0.02675  Biso   1.000  C
  C13      1.0000 0.46111  0.97325  0.97325  Biso   1.000  C
  C14      1.0000 0.97325  0.46111  0.59239  Biso   1.000  C
  C15      1.0000 0.59239  0.97325  0.97325  Biso   1.000  C
  C16      1.0000 0.97325  0.59239  0.46111  Biso   1.000  C
  C17      1.0000 0.97325  0.97325  0.59239  Biso   1.000  C
  C18      1.0000 0.59239  0.46111  0.97325  Biso   1.000  C
  C19      1.0000 0.97325  0.97325  0.46111  Biso   1.000  C
  C20      1.0000 0.46111  0.59239  0.97325  Biso   1.000  C
  C21      1.0000 0.59239  0.97325  0.46111  Biso   1.000  C
  C22      1.0000 0.97325  0.46111  0.97325  Biso   1.000  C
  C23      1.0000 0.46111  0.97325  0.59239  Biso   1.000  C
  C24      1.0000 0.97325  0.59239  0.97325  Biso   1.000  C
  C25      1.0000 0.11147  0.38853  0.11147  Biso   1.000  C
  C26      1.0000 0.05374  0.44626  0.05374  Biso   1.000  C
  C27      1.0000 0.38853  0.11147  0.38853  Biso   1.000  C
  C28      1.0000 0.44626  0.05374  0.44626  Biso   1.000  C
  C29      1.0000 0.11147  0.11147  0.38853  Biso   1.000  C
  C30      1.0000 0.05374  0.05374  0.44626  Biso   1.000  C
  C31      1.0000 0.38853  0.38853  0.11147  Biso   1.000  C
  C32      1.0000 0.44626  0.44626  0.05374  Biso   1.000  C
  C33      1.0000 0.11147  0.38853  0.38853  Biso   1.000  C
  C34      1.0000 0.05374  0.44626  0.44626  Biso   1.000  C
  C35      1.0000 0.38853  0.11147  0.11147  Biso   1.000  C
  C36      1.0000 0.44626  0.05374  0.05374  Biso   1.000  C
  C37      1.0000 0.61147  0.88853  0.88853  Biso   1.000  C
  C38      1.0000 0.55374  0.94626  0.94626  Biso   1.000  C
  C39      1.0000 0.88853  0.61147  0.61147  Biso   1.000  C
  C40      1.0000 0.94626  0.55374  0.55374  Biso   1.000  C
  C41      1.0000 0.88853  0.88853  0.61147  Biso   1.000  C
  C42      1.0000 0.94626  0.94626  0.55374  Biso   1.000  C
  C43      1.0000 0.61147  0.61147  0.88853  Biso   1.000  C
  C44      1.0000 0.55374  0.55374  0.94626  Biso   1.000  C
  C45      1.0000 0.61147  0.88853  0.61147  Biso   1.000  C
  C46      1.0000 0.55374  0.94626  0.55374  Biso   1.000  C
  C47      1.0000 0.88853  0.61147  0.88853  Biso   1.000  C
  C48      1.0000 0.94626  0.55374  0.94626  Biso   1.000  C
  O1       1.0000 0.25000  0.25000  0.25000  Biso   1.000  O
  O2       1.0000 0.75000  0.75000  0.75000  Biso   1.000  O
  O3       1.0000 0.13372  0.42764  0.13372  Biso   1.000  O
  O4       1.0000 0.42764  0.13372  0.30492  Biso   1.000  O
  O5       1.0000 0.13372  0.30492  0.13372  Biso   1.000  O
  O6       1.0000 0.30492  0.13372  0.42764  Biso   1.000  O
  O7       1.0000 0.13372  0.13372  0.30492  Biso   1.000  O
  O8       1.0000 0.42764  0.30492  0.13372  Biso   1.000  O
  O9       1.0000 0.13372  0.13372  0.42764  Biso   1.000  O
  O10      1.0000 0.30492  0.42764  0.13372  Biso   1.000  O
  O11      1.0000 0.13372  0.30492  0.42764  Biso   1.000  O
  O12      1.0000 0.42764  0.13372  0.13372  Biso   1.000  O
  O13      1.0000 0.13372  0.42764  0.30492  Biso   1.000  O
  O14      1.0000 0.30492  0.13372  0.13372  Biso   1.000  O
  O15      1.0000 0.57236  0.86628  0.86628  Biso   1.000  O
  O16      1.0000 0.86628  0.57236  0.69508  Biso   1.000  O
  O17      1.0000 0.69508  0.86628  0.86628  Biso   1.000  O
  O18      1.0000 0.86628  0.69508  0.57236  Biso   1.000  O
  O19      1.0000 0.86628  0.86628  0.69508  Biso   1.000  O
  O20      1.0000 0.69508  0.57236  0.86628  Biso   1.000  O
  O21      1.0000 0.86628  0.86628  0.57236  Biso   1.000  O
  O22      1.0000 0.57236  0.69508  0.86628  Biso   1.000  O
  O23      1.0000 0.69508  0.86628  0.57236  Biso   1.000  O
  O24      1.0000 0.86628  0.57236  0.86628  Biso   1.000  O
  O25      1.0000 0.57236  0.86628  0.69508  Biso   1.000  O
  O26      1.0000 0.86628  0.69508  0.86628  Biso   1.000  O
  Zn9      1.0000 0.90855  0.59358  0.58924  Biso   1.000  Zn
  Zn10     1.0000 0.32386  0.17827  0.00451  Biso   1.000  Zn
  Zn11     1.0000 0.32386  0.00472  0.00451  Biso   1.000  Zn
  Zn12     1.0000 0.90855  0.42004  0.58924  Biso   1.000  Zn
  Zn13     1.0000 0.90829  0.59378  0.41554  Biso   1.000  Zn
  Zn14     1.0000 0.73466  0.59365  0.58945  Biso   1.000  Zn
  Zn15     1.0000 0.32412  0.00453  0.17821  Biso   1.000  Zn
  Zn16     1.0000 0.49775  0.00465  0.00430  Biso   1.000  Zn
  H25      1.0000 0.07407  0.23331  0.44849  Biso   1.000  H
  H26      1.0000 0.06409  0.45308  0.23555  Biso   1.000  H
  H27      1.0000 0.77460  0.23528  0.74962  Biso   1.000  H
  H28      1.0000 0.54984  0.45425  0.75490  Biso   1.000  H
  H29      1.0000 0.07577  0.45365  0.74783  Biso   1.000  H
  H30      1.0000 0.15834  0.84276  0.14526  Biso   1.000  H
  H31      1.0000 0.16832  0.83966  0.35820  Biso   1.000  H
  H32      1.0000 0.45781  0.84636  0.84413  Biso   1.000  H
  H33      1.0000 0.68257  0.84586  0.83885  Biso   1.000  H
  H34      1.0000 0.15663  0.36412  0.84592  Biso   1.000  H
  H35      1.0000 0.15834  0.36500  0.14526  Biso   1.000  H
  H36      1.0000 0.16832  0.14523  0.35820  Biso   1.000  H
  H37      1.0000 0.45781  0.36302  0.84413  Biso   1.000  H
  H38      1.0000 0.68257  0.14406  0.83885  Biso   1.000  H
  H39      1.0000 0.15663  0.14466  0.84592  Biso   1.000  H
  H40      1.0000 0.07407  0.75555  0.44849  Biso   1.000  H
  H41      1.0000 0.06409  0.75865  0.23555  Biso   1.000  H
  H42      1.0000 0.77460  0.75195  0.74962  Biso   1.000  H
  H43      1.0000 0.54984  0.75245  0.75490  Biso   1.000  H
  H44      1.0000 0.07578  0.23419  0.74783  Biso   1.000  H
  H45      1.0000 0.55371  0.75426  0.44919  Biso   1.000  H
  H46      1.0000 0.76579  0.75695  0.23167  Biso   1.000  H
  H47      1.0000 0.67870  0.84405  0.14457  Biso   1.000  H
  H48      1.0000 0.46661  0.84135  0.36208  Biso   1.000  H
  C49      1.0000 0.00318  0.41037  0.40996  Biso   1.000  C
  C50      1.0000 0.06150  0.35364  0.34984  Biso   1.000  C
  C51      1.0000 0.09288  0.25969  0.38647  Biso   1.000  C
  C52      1.0000 0.08499  0.39117  0.26104  Biso   1.000  C
  C53      1.0000 0.72710  0.41155  0.68532  Biso   1.000  C
  C54      1.0000 0.67027  0.35611  0.74196  Biso   1.000  C
  C55      1.0000 0.71279  0.26086  0.76705  Biso   1.000  C
  C56      1.0000 0.57731  0.39254  0.77043  Biso   1.000  C
  C57      1.0000 0.09200  0.39184  0.76724  Biso   1.000  C
  C58      1.0000 0.22923  0.91044  0.18379  Biso   1.000  C
  C59      1.0000 0.17090  0.85191  0.24392  Biso   1.000  C
  C60      1.0000 0.13953  0.82593  0.20728  Biso   1.000  C
  C61      1.0000 0.14742  0.82413  0.33271  Biso   1.000  C
  C62      1.0000 0.50531  0.91085  0.90844  Biso   1.000  C
  C63      1.0000 0.56214  0.85521  0.85179  Biso   1.000  C
  C64      1.0000 0.51962  0.82754  0.82671  Biso   1.000  C
  C65      1.0000 0.65510  0.82715  0.82332  Biso   1.000  C
  C66      1.0000 0.14040  0.33794  0.82651  Biso   1.000  C
  C67      1.0000 0.22923  0.18793  0.18379  Biso   1.000  C
  C68      1.0000 0.17091  0.24466  0.24392  Biso   1.000  C
  C69      1.0000 0.13953  0.33862  0.20728  Biso   1.000  C
  C70      1.0000 0.14742  0.20714  0.33271  Biso   1.000  C
  C71      1.0000 0.50531  0.18675  0.90844  Biso   1.000  C
  C72      1.0000 0.56214  0.24220  0.85179  Biso   1.000  C
  C73      1.0000 0.51962  0.33744  0.82671  Biso   1.000  C
  C74      1.0000 0.65510  0.20577  0.82332  Biso   1.000  C
  C75      1.0000 0.14041  0.20647  0.82651  Biso   1.000  C
  C76      1.0000 0.00318  0.68787  0.40996  Biso   1.000  C
  C77      1.0000 0.06150  0.74640  0.34984  Biso   1.000  C
  C78      1.0000 0.09288  0.77237  0.38647  Biso   1.000  C
  C79      1.0000 0.08499  0.77417  0.26104  Biso   1.000  C
  C80      1.0000 0.72710  0.68746  0.68532  Biso   1.000  C
  C81      1.0000 0.67027  0.74309  0.74196  Biso   1.000  C
  C82      1.0000 0.71279  0.77076  0.76705  Biso   1.000  C
  C83      1.0000 0.57731  0.77116  0.77043  Biso   1.000  C
  C84      1.0000 0.09200  0.26036  0.76724  Biso   1.000  C
  C85      1.0000 0.72888  0.68956  0.40339  Biso   1.000  C
  C86      1.0000 0.66995  0.74540  0.35063  Biso   1.000  C
  C87      1.0000 0.58018  0.77188  0.38747  Biso   1.000  C
  C88      1.0000 0.70379  0.77427  0.25905  Biso   1.000  C
  C89      1.0000 0.00240  0.41444  0.68014  Biso   1.000  C
  C90      1.0000 0.06053  0.35452  0.74186  Biso   1.000  C
  C91      1.0000 0.50353  0.90874  0.19036  Biso   1.000  C
  C92      1.0000 0.56246  0.85290  0.24312  Biso   1.000  C
  C93      1.0000 0.65223  0.82643  0.20629  Biso   1.000  C
  C94      1.0000 0.52862  0.82403  0.33470  Biso   1.000  C
  C95      1.0000 0.23001  0.18387  0.91361  Biso   1.000  C
  C96      1.0000 0.17188  0.24379  0.85189  Biso   1.000  C
  O27      1.0000 0.98118  0.49567  0.36666  Biso   1.000  O
  O28      1.0000 0.98358  0.37006  0.49229  Biso   1.000  O
  O29      1.0000 0.68639  0.49675  0.66013  Biso   1.000  O
  O30      1.0000 0.81100  0.37154  0.66292  Biso   1.000  O
  O31      1.0000 0.98150  0.49705  0.66063  Biso   1.000  O
  O32      1.0000 0.25122  0.93044  0.22709  Biso   1.000  O
  O33      1.0000 0.24883  0.93284  0.10146  Biso   1.000  O
  O34      1.0000 0.54602  0.93016  0.93362  Biso   1.000  O
  O35      1.0000 0.42141  0.93235  0.93083  Biso   1.000  O
  O36      1.0000 0.25091  0.22607  0.93312  Biso   1.000  O
  O37      1.0000 0.25122  0.10263  0.22709  Biso   1.000  O
  O38      1.0000 0.24883  0.22825  0.10146  Biso   1.000  O
  O39      1.0000 0.54602  0.10155  0.93362  Biso   1.000  O
  O40      1.0000 0.42141  0.22677  0.93083  Biso   1.000  O
  O41      1.0000 0.25091  0.10125  0.93312  Biso   1.000  O
  O42      1.0000 0.98118  0.66787  0.36666  Biso   1.000  O
  O43      1.0000 0.98358  0.66547  0.49229  Biso   1.000  O
  O44      1.0000 0.68639  0.66815  0.66013  Biso   1.000  O
  O45      1.0000 0.81100  0.66596  0.66292  Biso   1.000  O
  O46      1.0000 0.98150  0.37224  0.66063  Biso   1.000  O
  O47      1.0000 0.86504  0.55041  0.54555  Biso   1.000  O
  O48      1.0000 0.81079  0.66647  0.36765  Biso   1.000  O
  O49      1.0000 0.68768  0.66806  0.48761  Biso   1.000  O
  O50      1.0000 0.36737  0.04790  0.04820  Biso   1.000  O
  O51      1.0000 0.42162  0.93183  0.22610  Biso   1.000  O
  O52      1.0000 0.54473  0.93025  0.10614  Biso   1.000  O
