data_image0
_cell_length_a       18.283
_cell_length_b       18.283
_cell_length_c       18.283
_cell_angle_alpha    60
_cell_angle_beta     60
_cell_angle_gamma    60

_symmetry_space_group_name_H-M    "P 1"
_symmetry_int_tables_number       1

loop_
  _symmetry_equiv_pos_as_xyz
  'x, y, z'

loop_
  _atom_site_label
  _atom_site_occupancy
  _atom_site_fract_x
  _atom_site_fract_y
  _atom_site_fract_z
  _atom_site_thermal_displace_type
  _atom_site_B_iso_or_equiv
  _atom_site_type_symbol
  C1       1.0000 0.20657  0.38031  0.20656  Biso   1.000  C
  C2       1.0000 0.38032  0.20656  0.20656  Biso   1.000  C
  C3       1.0000 0.20657  0.20656  0.20656  Biso   1.000  C
  C4       1.0000 0.20657  0.20656  0.38031  Biso   1.000  C
  C5       1.0000 0.61968  0.79344  0.79344  Biso   1.000  C
  C6       1.0000 0.79343  0.61969  0.79344  Biso   1.000  C
  C7       1.0000 0.79343  0.79344  0.79344  Biso   1.000  C
  C8       1.0000 0.79343  0.79344  0.61969  Biso   1.000  C
  C9       1.0000 0.04500  0.56540  0.04500  Biso   1.000  C
  C10      1.0000 0.56540  0.04500  0.34460  Biso   1.000  C
  C11      1.0000 0.04500  0.34460  0.04500  Biso   1.000  C
  C12      1.0000 0.34460  0.04500  0.56540  Biso   1.000  C
  C13      1.0000 0.04500  0.04500  0.34460  Biso   1.000  C
  C14      1.0000 0.56540  0.34460  0.04500  Biso   1.000  C
  C15      1.0000 0.04500  0.04500  0.56540  Biso   1.000  C
  C16      1.0000 0.34460  0.56540  0.04500  Biso   1.000  C
  C17      1.0000 0.04500  0.34460  0.56540  Biso   1.000  C
  C18      1.0000 0.56540  0.04500  0.04500  Biso   1.000  C
  C19      1.0000 0.04500  0.56540  0.34460  Biso   1.000  C
  C20      1.0000 0.34460  0.04500  0.04500  Biso   1.000  C
  C21      1.0000 0.43460  0.95500  0.95500  Biso   1.000  C
  C22      1.0000 0.95500  0.43460  0.65540  Biso   1.000  C
  C23      1.0000 0.65540  0.95500  0.95500  Biso   1.000  C
  C24      1.0000 0.95500  0.65540  0.43460  Biso   1.000  C
  C25      1.0000 0.95500  0.95500  0.65540  Biso   1.000  C
  C26      1.0000 0.65540  0.43460  0.95500  Biso   1.000  C
  C27      1.0000 0.95500  0.95500  0.43460  Biso   1.000  C
  C28      1.0000 0.43460  0.65540  0.95500  Biso   1.000  C
  C29      1.0000 0.65540  0.95500  0.43460  Biso   1.000  C
  C30      1.0000 0.95500  0.43460  0.95500  Biso   1.000  C
  C31      1.0000 0.43460  0.95500  0.65540  Biso   1.000  C
  C32      1.0000 0.95500  0.65540  0.95500  Biso   1.000  C
  C33      1.0000 0.02670  0.53864  0.02670  Biso   1.000  C
  C34      1.0000 0.53864  0.02670  0.40796  Biso   1.000  C
  C35      1.0000 0.02670  0.40796  0.02670  Biso   1.000  C
  C36      1.0000 0.40796  0.02670  0.53864  Biso   1.000  C
  C37      1.0000 0.02670  0.02670  0.40796  Biso   1.000  C
  C38      1.0000 0.53864  0.40796  0.02670  Biso   1.000  C
  C39      1.0000 0.02670  0.02670  0.53864  Biso   1.000  C
  C40      1.0000 0.40796  0.53864  0.02670  Biso   1.000  C
  C41      1.0000 0.02670  0.40796  0.53864  Biso   1.000  C
  C42      1.0000 0.53864  0.02670  0.02670  Biso   1.000  C
  C43      1.0000 0.02670  0.53864  0.40796  Biso   1.000  C
  C44      1.0000 0.40796  0.02670  0.02670  Biso   1.000  C
  C45      1.0000 0.46136  0.97330  0.97330  Biso   1.000  C
  C46      1.0000 0.97330  0.46136  0.59204  Biso   1.000  C
  C47      1.0000 0.59204  0.97330  0.97330  Biso   1.000  C
  C48      1.0000 0.97330  0.59204  0.46136  Biso   1.000  C
  C49      1.0000 0.97330  0.97330  0.59204  Biso   1.000  C
  C50      1.0000 0.59204  0.46136  0.97330  Biso   1.000  C
  C51      1.0000 0.97330  0.97330  0.46136  Biso   1.000  C
  C52      1.0000 0.46136  0.59204  0.97330  Biso   1.000  C
  C53      1.0000 0.59204  0.97330  0.46136  Biso   1.000  C
  C54      1.0000 0.97330  0.46136  0.97330  Biso   1.000  C
  C55      1.0000 0.46136  0.97330  0.59204  Biso   1.000  C
  C56      1.0000 0.97330  0.59204  0.97330  Biso   1.000  C
  C57      1.0000 0.11148  0.38852  0.11148  Biso   1.000  C
  C58      1.0000 0.05372  0.44628  0.05372  Biso   1.000  C
  C59      1.0000 0.38852  0.11148  0.38852  Biso   1.000  C
  C60      1.0000 0.44628  0.05372  0.44628  Biso   1.000  C
  C61      1.0000 0.11148  0.11148  0.38852  Biso   1.000  C
  C62      1.0000 0.05372  0.05372  0.44628  Biso   1.000  C
  C63      1.0000 0.38852  0.38852  0.11148  Biso   1.000  C
  C64      1.0000 0.44628  0.44628  0.05372  Biso   1.000  C
  C65      1.0000 0.11148  0.38852  0.38852  Biso   1.000  C
  C66      1.0000 0.05372  0.44628  0.44628  Biso   1.000  C
  C67      1.0000 0.38852  0.11148  0.11148  Biso   1.000  C
  C68      1.0000 0.44628  0.05372  0.05372  Biso   1.000  C
  C69      1.0000 0.61148  0.88852  0.88852  Biso   1.000  C
  C70      1.0000 0.55372  0.94628  0.94628  Biso   1.000  C
  C71      1.0000 0.88852  0.61148  0.61148  Biso   1.000  C
  C72      1.0000 0.94628  0.55372  0.55372  Biso   1.000  C
  C73      1.0000 0.88852  0.88852  0.61148  Biso   1.000  C
  C74      1.0000 0.94628  0.94628  0.55372  Biso   1.000  C
  C75      1.0000 0.61148  0.61148  0.88852  Biso   1.000  C
  C76      1.0000 0.55372  0.55372  0.94628  Biso   1.000  C
  C77      1.0000 0.61148  0.88852  0.61148  Biso   1.000  C
  C78      1.0000 0.55372  0.94628  0.55372  Biso   1.000  C
  C79      1.0000 0.88852  0.61148  0.88852  Biso   1.000  C
  C80      1.0000 0.94628  0.55372  0.94628  Biso   1.000  C
  C81      1.0000 0.25000  0.25000  0.25000  Biso   1.000  C
  C82      1.0000 0.75000  0.75000  0.75000  Biso   1.000  C
  C83      1.0000 0.13373  0.42751  0.13373  Biso   1.000  C
  C84      1.0000 0.42751  0.13373  0.30503  Biso   1.000  C
  C85      1.0000 0.13373  0.30503  0.13373  Biso   1.000  C
  C86      1.0000 0.30503  0.13373  0.42751  Biso   1.000  C
  C87      1.0000 0.13373  0.13373  0.30503  Biso   1.000  C
  C88      1.0000 0.42751  0.30503  0.13373  Biso   1.000  C
  C89      1.0000 0.13373  0.13373  0.42751  Biso   1.000  C
  C90      1.0000 0.30503  0.42751  0.13373  Biso   1.000  C
  C91      1.0000 0.13373  0.30503  0.42751  Biso   1.000  C
  C92      1.0000 0.42751  0.13373  0.13373  Biso   1.000  C
  C93      1.0000 0.13373  0.42751  0.30503  Biso   1.000  C
  C94      1.0000 0.30503  0.13373  0.13373  Biso   1.000  C
  C95      1.0000 0.57249  0.86627  0.86627  Biso   1.000  C
  C96      1.0000 0.86627  0.57249  0.69497  Biso   1.000  C
  C97      1.0000 0.69497  0.86627  0.86627  Biso   1.000  C
  C98      1.0000 0.86627  0.69497  0.57249  Biso   1.000  C
  C99      1.0000 0.86627  0.86627  0.69497  Biso   1.000  C
  C100     1.0000 0.69497  0.57249  0.86627  Biso   1.000  C
  C101     1.0000 0.86627  0.86627  0.57249  Biso   1.000  C
  C102     1.0000 0.57249  0.69497  0.86627  Biso   1.000  C
  C103     1.0000 0.69497  0.86627  0.57249  Biso   1.000  C
  C104     1.0000 0.86627  0.57249  0.86627  Biso   1.000  C
  C105     1.0000 0.57249  0.86627  0.69497  Biso   1.000  C
  C106     1.0000 0.86627  0.69497  0.86627  Biso   1.000  C
  O1       1.0000 0.59210  0.07974  0.72058  Biso   1.000  O
  O2       1.0000 0.59210  0.25294  0.72058  Biso   1.000  O
  O3       1.0000 0.41890  0.25294  0.72058  Biso   1.000  O
  O4       1.0000 0.59210  0.25294  0.54738  Biso   1.000  O
  O5       1.0000 0.00550  0.66634  0.13398  Biso   1.000  O
  O6       1.0000 0.00550  0.83954  0.13398  Biso   1.000  O
  O7       1.0000 0.17870  0.66634  0.13398  Biso   1.000  O
  O8       1.0000 0.00550  0.66634  0.30718  Biso   1.000  O
  O9       1.0000 0.46140  0.89584  0.87788  Biso   1.000  O
  O10      1.0000 0.74940  0.41024  0.58988  Biso   1.000  O
  O11      1.0000 0.23500  0.12224  0.87788  Biso   1.000  O
  O12      1.0000 0.74940  0.41024  0.36348  Biso   1.000  O
  O13      1.0000 0.23500  0.41024  0.58988  Biso   1.000  O
  O14      1.0000 0.74940  0.12224  0.87788  Biso   1.000  O
  O15      1.0000 0.46140  0.41024  0.36348  Biso   1.000  O
  O16      1.0000 0.74940  0.89584  0.87788  Biso   1.000  O
  O17      1.0000 0.74940  0.12224  0.36348  Biso   1.000  O
  O18      1.0000 0.46140  0.41024  0.87788  Biso   1.000  O
  O19      1.0000 0.74940  0.89584  0.58988  Biso   1.000  O
  O20      1.0000 0.23500  0.41024  0.87788  Biso   1.000  O
  O21      1.0000 0.13620  0.50904  0.97668  Biso   1.000  O
  O22      1.0000 0.84820  0.02344  0.26468  Biso   1.000  O
  O23      1.0000 0.36260  0.50904  0.97668  Biso   1.000  O
  O24      1.0000 0.84820  0.79704  0.49108  Biso   1.000  O
  O25      1.0000 0.36260  0.50904  0.26468  Biso   1.000  O
  O26      1.0000 0.84820  0.02344  0.97668  Biso   1.000  O
  O27      1.0000 0.13620  0.50904  0.49108  Biso   1.000  O
  O28      1.0000 0.84820  0.79704  0.97668  Biso   1.000  O
  O29      1.0000 0.84820  0.50904  0.49108  Biso   1.000  O
  O30      1.0000 0.13620  0.02344  0.97668  Biso   1.000  O
  O31      1.0000 0.84820  0.50904  0.26468  Biso   1.000  O
  O32      1.0000 0.36260  0.79704  0.97668  Biso   1.000  O
  O33      1.0000 0.39100  0.92144  0.90028  Biso   1.000  O
  O34      1.0000 0.77180  0.43264  0.51948  Biso   1.000  O
  O35      1.0000 0.26060  0.05184  0.90028  Biso   1.000  O
  O36      1.0000 0.77180  0.43264  0.38908  Biso   1.000  O
  O37      1.0000 0.26060  0.43264  0.51948  Biso   1.000  O
  O38      1.0000 0.77180  0.05184  0.90028  Biso   1.000  O
  O39      1.0000 0.39100  0.43264  0.38908  Biso   1.000  O
  O40      1.0000 0.77180  0.92144  0.90028  Biso   1.000  O
  O41      1.0000 0.77180  0.05184  0.38908  Biso   1.000  O
  O42      1.0000 0.39100  0.43264  0.90028  Biso   1.000  O
  O43      1.0000 0.77180  0.92144  0.51948  Biso   1.000  O
  O44      1.0000 0.26060  0.43264  0.90028  Biso   1.000  O
  O45      1.0000 0.20660  0.48664  0.95428  Biso   1.000  O
  O46      1.0000 0.82580  0.99784  0.33508  Biso   1.000  O
  O47      1.0000 0.33700  0.48664  0.95428  Biso   1.000  O
  O48      1.0000 0.82580  0.86744  0.46548  Biso   1.000  O
  O49      1.0000 0.33700  0.48664  0.33508  Biso   1.000  O
  O50      1.0000 0.82580  0.99784  0.95428  Biso   1.000  O
  O51      1.0000 0.20660  0.48664  0.46548  Biso   1.000  O
  O52      1.0000 0.82580  0.86744  0.95428  Biso   1.000  O
  O53      1.0000 0.82580  0.48664  0.46548  Biso   1.000  O
  O54      1.0000 0.20660  0.99784  0.95428  Biso   1.000  O
  O55      1.0000 0.82580  0.48664  0.33508  Biso   1.000  O
  O56      1.0000 0.33700  0.86744  0.95428  Biso   1.000  O
  O57      1.0000 0.40950  0.07034  0.81658  Biso   1.000  O
  O58      1.0000 0.35300  0.01384  0.87308  Biso   1.000  O
  O59      1.0000 0.68810  0.34894  0.53798  Biso   1.000  O
  O60      1.0000 0.74460  0.40544  0.48148  Biso   1.000  O
  O61      1.0000 0.40950  0.34894  0.53798  Biso   1.000  O
  O62      1.0000 0.35300  0.40544  0.48148  Biso   1.000  O
  O63      1.0000 0.68810  0.07034  0.81658  Biso   1.000  O
  O64      1.0000 0.74460  0.01384  0.87308  Biso   1.000  O
  O65      1.0000 0.68810  0.07034  0.53798  Biso   1.000  O
  O66      1.0000 0.74460  0.01384  0.48148  Biso   1.000  O
  O67      1.0000 0.40950  0.34894  0.81658  Biso   1.000  O
  O68      1.0000 0.35300  0.40544  0.87308  Biso   1.000  O
  O69      1.0000 0.18810  0.57034  0.03798  Biso   1.000  O
  O70      1.0000 0.24460  0.51384  0.98148  Biso   1.000  O
  O71      1.0000 0.90950  0.84894  0.31658  Biso   1.000  O
  O72      1.0000 0.85300  0.90544  0.37308  Biso   1.000  O
  O73      1.0000 0.18810  0.57034  0.31658  Biso   1.000  O
  O74      1.0000 0.24460  0.51384  0.37308  Biso   1.000  O
  O75      1.0000 0.90950  0.84894  0.03798  Biso   1.000  O
  O76      1.0000 0.85300  0.90544  0.98148  Biso   1.000  O
  O77      1.0000 0.90950  0.57034  0.31658  Biso   1.000  O
  O78      1.0000 0.85300  0.51384  0.37308  Biso   1.000  O
  O79      1.0000 0.18810  0.84894  0.03798  Biso   1.000  O
  O80      1.0000 0.24460  0.90544  0.98148  Biso   1.000  O
  O81      1.0000 0.54880  0.20964  0.67728  Biso   1.000  O
  O82      1.0000 0.04880  0.70964  0.17728  Biso   1.000  O
  O83      1.0000 0.49410  0.03294  0.79298  Biso   1.000  O
  O84      1.0000 0.66450  0.32534  0.62258  Biso   1.000  O
  O85      1.0000 0.37210  0.15494  0.79298  Biso   1.000  O
  O86      1.0000 0.66450  0.32534  0.50058  Biso   1.000  O
  O87      1.0000 0.37210  0.32534  0.62258  Biso   1.000  O
  O88      1.0000 0.66450  0.15494  0.79298  Biso   1.000  O
  O89      1.0000 0.49410  0.32534  0.50058  Biso   1.000  O
  O90      1.0000 0.66450  0.03294  0.79298  Biso   1.000  O
  O91      1.0000 0.66450  0.15494  0.50058  Biso   1.000  O
  O92      1.0000 0.49410  0.32534  0.79298  Biso   1.000  O
  O93      1.0000 0.66450  0.03294  0.62258  Biso   1.000  O
  O94      1.0000 0.37210  0.32534  0.79298  Biso   1.000  O
  O95      1.0000 0.10350  0.59394  0.06158  Biso   1.000  O
  O96      1.0000 0.93310  0.88634  0.23198  Biso   1.000  O
  O97      1.0000 0.22550  0.59394  0.06158  Biso   1.000  O
  O98      1.0000 0.93310  0.76434  0.35398  Biso   1.000  O
  O99      1.0000 0.22550  0.59394  0.23198  Biso   1.000  O
  O100     1.0000 0.93310  0.88634  0.06158  Biso   1.000  O
  O101     1.0000 0.10350  0.59394  0.35398  Biso   1.000  O
  O102     1.0000 0.93310  0.76434  0.06158  Biso   1.000  O
  O103     1.0000 0.93310  0.59394  0.35398  Biso   1.000  O
  O104     1.0000 0.10350  0.88634  0.06158  Biso   1.000  O
  O105     1.0000 0.93310  0.59394  0.23198  Biso   1.000  O
  O106     1.0000 0.22550  0.76434  0.06158  Biso   1.000  O
