data_image0
_cell_length_a       18.283
_cell_length_b       18.283
_cell_length_c       18.283
_cell_angle_alpha    60
_cell_angle_beta     60
_cell_angle_gamma    60

_symmetry_space_group_name_H-M    "P 1"
_symmetry_int_tables_number       1

loop_
  _symmetry_equiv_pos_as_xyz
  'x, y, z'

loop_
  _atom_site_label
  _atom_site_occupancy
  _atom_site_fract_x
  _atom_site_fract_y
  _atom_site_fract_z
  _atom_site_thermal_displace_type
  _atom_site_B_iso_or_equiv
  _atom_site_type_symbol
  C1       1.0000 0.20657  0.38031  0.20656  Biso   1.000  C
  C2       1.0000 0.38032  0.20656  0.20656  Biso   1.000  C
  C3       1.0000 0.20657  0.20656  0.20656  Biso   1.000  C
  C4       1.0000 0.20657  0.20656  0.38031  Biso   1.000  C
  C5       1.0000 0.61968  0.79344  0.79344  Biso   1.000  C
  C6       1.0000 0.79343  0.61969  0.79344  Biso   1.000  C
  C7       1.0000 0.79343  0.79344  0.79344  Biso   1.000  C
  C8       1.0000 0.79343  0.79344  0.61969  Biso   1.000  C
  C9       1.0000 0.04500  0.56540  0.04500  Biso   1.000  C
  C10      1.0000 0.56540  0.04500  0.34460  Biso   1.000  C
  C11      1.0000 0.04500  0.34460  0.04500  Biso   1.000  C
  C12      1.0000 0.34460  0.04500  0.56540  Biso   1.000  C
  C13      1.0000 0.04500  0.04500  0.34460  Biso   1.000  C
  C14      1.0000 0.56540  0.34460  0.04500  Biso   1.000  C
  C15      1.0000 0.04500  0.04500  0.56540  Biso   1.000  C
  C16      1.0000 0.34460  0.56540  0.04500  Biso   1.000  C
  C17      1.0000 0.04500  0.34460  0.56540  Biso   1.000  C
  C18      1.0000 0.56540  0.04500  0.04500  Biso   1.000  C
  C19      1.0000 0.04500  0.56540  0.34460  Biso   1.000  C
  C20      1.0000 0.34460  0.04500  0.04500  Biso   1.000  C
  C21      1.0000 0.43460  0.95500  0.95500  Biso   1.000  C
  C22      1.0000 0.95500  0.43460  0.65540  Biso   1.000  C
  C23      1.0000 0.65540  0.95500  0.95500  Biso   1.000  C
  C24      1.0000 0.95500  0.65540  0.43460  Biso   1.000  C
  C25      1.0000 0.95500  0.95500  0.65540  Biso   1.000  C
  C26      1.0000 0.65540  0.43460  0.95500  Biso   1.000  C
  C27      1.0000 0.95500  0.95500  0.43460  Biso   1.000  C
  C28      1.0000 0.43460  0.65540  0.95500  Biso   1.000  C
  C29      1.0000 0.65540  0.95500  0.43460  Biso   1.000  C
  C30      1.0000 0.95500  0.43460  0.95500  Biso   1.000  C
  C31      1.0000 0.43460  0.95500  0.65540  Biso   1.000  C
  C32      1.0000 0.95500  0.65540  0.95500  Biso   1.000  C
  C33      1.0000 0.02670  0.53864  0.02670  Biso   1.000  C
  C34      1.0000 0.53864  0.02670  0.40796  Biso   1.000  C
  C35      1.0000 0.02670  0.40796  0.02670  Biso   1.000  C
  C36      1.0000 0.40796  0.02670  0.53864  Biso   1.000  C
  C37      1.0000 0.02670  0.02670  0.40796  Biso   1.000  C
  C38      1.0000 0.53864  0.40796  0.02670  Biso   1.000  C
  C39      1.0000 0.02670  0.02670  0.53864  Biso   1.000  C
  C40      1.0000 0.40796  0.53864  0.02670  Biso   1.000  C
  C41      1.0000 0.02670  0.40796  0.53864  Biso   1.000  C
  C42      1.0000 0.53864  0.02670  0.02670  Biso   1.000  C
  C43      1.0000 0.02670  0.53864  0.40796  Biso   1.000  C
  C44      1.0000 0.40796  0.02670  0.02670  Biso   1.000  C
  C45      1.0000 0.46136  0.97330  0.97330  Biso   1.000  C
  C46      1.0000 0.97330  0.46136  0.59204  Biso   1.000  C
  C47      1.0000 0.59204  0.97330  0.97330  Biso   1.000  C
  C48      1.0000 0.97330  0.59204  0.46136  Biso   1.000  C
  C49      1.0000 0.97330  0.97330  0.59204  Biso   1.000  C
  C50      1.0000 0.59204  0.46136  0.97330  Biso   1.000  C
  C51      1.0000 0.97330  0.97330  0.46136  Biso   1.000  C
  C52      1.0000 0.46136  0.59204  0.97330  Biso   1.000  C
  C53      1.0000 0.59204  0.97330  0.46136  Biso   1.000  C
  C54      1.0000 0.97330  0.46136  0.97330  Biso   1.000  C
  C55      1.0000 0.46136  0.97330  0.59204  Biso   1.000  C
  C56      1.0000 0.97330  0.59204  0.97330  Biso   1.000  C
  C57      1.0000 0.11148  0.38852  0.11148  Biso   1.000  C
  C58      1.0000 0.05372  0.44628  0.05372  Biso   1.000  C
  C59      1.0000 0.38852  0.11148  0.38852  Biso   1.000  C
  C60      1.0000 0.44628  0.05372  0.44628  Biso   1.000  C
  C61      1.0000 0.11148  0.11148  0.38852  Biso   1.000  C
  C62      1.0000 0.05372  0.05372  0.44628  Biso   1.000  C
  C63      1.0000 0.38852  0.38852  0.11148  Biso   1.000  C
  C64      1.0000 0.44628  0.44628  0.05372  Biso   1.000  C
  C65      1.0000 0.11148  0.38852  0.38852  Biso   1.000  C
  C66      1.0000 0.05372  0.44628  0.44628  Biso   1.000  C
  C67      1.0000 0.38852  0.11148  0.11148  Biso   1.000  C
  C68      1.0000 0.44628  0.05372  0.05372  Biso   1.000  C
  C69      1.0000 0.61148  0.88852  0.88852  Biso   1.000  C
  C70      1.0000 0.55372  0.94628  0.94628  Biso   1.000  C
  C71      1.0000 0.88852  0.61148  0.61148  Biso   1.000  C
  C72      1.0000 0.94628  0.55372  0.55372  Biso   1.000  C
  C73      1.0000 0.88852  0.88852  0.61148  Biso   1.000  C
  C74      1.0000 0.94628  0.94628  0.55372  Biso   1.000  C
  C75      1.0000 0.61148  0.61148  0.88852  Biso   1.000  C
  C76      1.0000 0.55372  0.55372  0.94628  Biso   1.000  C
  C77      1.0000 0.61148  0.88852  0.61148  Biso   1.000  C
  C78      1.0000 0.55372  0.94628  0.55372  Biso   1.000  C
  C79      1.0000 0.88852  0.61148  0.88852  Biso   1.000  C
  C80      1.0000 0.94628  0.55372  0.94628  Biso   1.000  C
  C81      1.0000 0.25000  0.25000  0.25000  Biso   1.000  C
  C82      1.0000 0.75000  0.75000  0.75000  Biso   1.000  C
  C83      1.0000 0.13373  0.42751  0.13373  Biso   1.000  C
  C84      1.0000 0.42751  0.13373  0.30503  Biso   1.000  C
  C85      1.0000 0.13373  0.30503  0.13373  Biso   1.000  C
  C86      1.0000 0.30503  0.13373  0.42751  Biso   1.000  C
  C87      1.0000 0.13373  0.13373  0.30503  Biso   1.000  C
  C88      1.0000 0.42751  0.30503  0.13373  Biso   1.000  C
  C89      1.0000 0.13373  0.13373  0.42751  Biso   1.000  C
  C90      1.0000 0.30503  0.42751  0.13373  Biso   1.000  C
  C91      1.0000 0.13373  0.30503  0.42751  Biso   1.000  C
  C92      1.0000 0.42751  0.13373  0.13373  Biso   1.000  C
  C93      1.0000 0.13373  0.42751  0.30503  Biso   1.000  C
  C94      1.0000 0.30503  0.13373  0.13373  Biso   1.000  C
  C95      1.0000 0.57249  0.86627  0.86627  Biso   1.000  C
  C96      1.0000 0.86627  0.57249  0.69497  Biso   1.000  C
  C97      1.0000 0.69497  0.86627  0.86627  Biso   1.000  C
  C98      1.0000 0.86627  0.69497  0.57249  Biso   1.000  C
  C99      1.0000 0.86627  0.86627  0.69497  Biso   1.000  C
  C100     1.0000 0.69497  0.57249  0.86627  Biso   1.000  C
  C101     1.0000 0.86627  0.86627  0.57249  Biso   1.000  C
  C102     1.0000 0.57249  0.69497  0.86627  Biso   1.000  C
  C103     1.0000 0.69497  0.86627  0.57249  Biso   1.000  C
  C104     1.0000 0.86627  0.57249  0.86627  Biso   1.000  C
  C105     1.0000 0.57249  0.86627  0.69497  Biso   1.000  C
  C106     1.0000 0.86627  0.69497  0.86627  Biso   1.000  C
  O1       1.0000 0.90967  0.59184  0.58873  Biso   1.000  O
  O2       1.0000 0.32426  0.17725  0.00328  Biso   1.000  O
  O3       1.0000 0.32426  0.00349  0.00328  Biso   1.000  O
  O4       1.0000 0.90967  0.41808  0.58873  Biso   1.000  O
  O5       1.0000 0.90941  0.59204  0.41482  Biso   1.000  O
  O6       1.0000 0.73557  0.59191  0.58894  Biso   1.000  O
  O7       1.0000 0.32452  0.00329  0.17720  Biso   1.000  O
  O8       1.0000 0.49836  0.00342  0.00307  Biso   1.000  O
  O9       1.0000 0.07416  0.23236  0.44781  Biso   1.000  O
  O10      1.0000 0.06540  0.45117  0.23461  Biso   1.000  O
  O11      1.0000 0.77432  0.23434  0.74931  Biso   1.000  O
  O12      1.0000 0.55052  0.45234  0.75460  Biso   1.000  O
  O13      1.0000 0.07587  0.45174  0.74752  Biso   1.000  O
  O14      1.0000 0.15977  0.84133  0.14421  Biso   1.000  O
  O15      1.0000 0.16853  0.83823  0.35740  Biso   1.000  O
  O16      1.0000 0.45961  0.84493  0.84270  Biso   1.000  O
  O17      1.0000 0.68341  0.84443  0.83741  Biso   1.000  O
  O18      1.0000 0.15806  0.36210  0.84449  Biso   1.000  O
  O19      1.0000 0.15977  0.36298  0.14421  Biso   1.000  O
  O20      1.0000 0.16853  0.14417  0.35740  Biso   1.000  O
  O21      1.0000 0.45961  0.36100  0.84270  Biso   1.000  O
  O22      1.0000 0.68341  0.14300  0.83741  Biso   1.000  O
  O23      1.0000 0.15806  0.14360  0.84449  Biso   1.000  O
  O24      1.0000 0.07416  0.75401  0.44781  Biso   1.000  O
  O25      1.0000 0.06540  0.75711  0.23461  Biso   1.000  O
  O26      1.0000 0.77432  0.75041  0.74931  Biso   1.000  O
  O27      1.0000 0.55052  0.75091  0.75460  Biso   1.000  O
  O28      1.0000 0.07587  0.23324  0.74752  Biso   1.000  O
  O29      1.0000 0.55439  0.75272  0.44850  Biso   1.000  O
  O30      1.0000 0.76674  0.75542  0.23072  Biso   1.000  O
  O31      1.0000 0.67954  0.84262  0.14351  Biso   1.000  O
  O32      1.0000 0.46719  0.83992  0.36129  Biso   1.000  O
  O33      1.0000 0.00442  0.40841  0.40923  Biso   1.000  O
  O34      1.0000 0.06282  0.35161  0.34903  Biso   1.000  O
  O35      1.0000 0.09300  0.25877  0.38571  Biso   1.000  O
  O36      1.0000 0.08633  0.38918  0.26012  Biso   1.000  O
  O37      1.0000 0.72800  0.40959  0.68493  Biso   1.000  O
  O38      1.0000 0.67110  0.35408  0.74164  Biso   1.000  O
  O39      1.0000 0.71244  0.25995  0.76676  Biso   1.000  O
  O40      1.0000 0.57802  0.39055  0.77015  Biso   1.000  O
  O41      1.0000 0.09211  0.38985  0.76696  Biso   1.000  O
  O42      1.0000 0.22951  0.90909  0.18278  Biso   1.000  O
  O43      1.0000 0.17111  0.85049  0.24298  Biso   1.000  O
  O44      1.0000 0.14094  0.82448  0.20630  Biso   1.000  O
  O45      1.0000 0.14760  0.82268  0.33189  Biso   1.000  O
  O46      1.0000 0.50593  0.90950  0.90709  Biso   1.000  O
  O47      1.0000 0.56283  0.85380  0.85037  Biso   1.000  O
  O48      1.0000 0.52150  0.82609  0.82525  Biso   1.000  O
  O49      1.0000 0.65591  0.82570  0.82187  Biso   1.000  O
  O50      1.0000 0.14181  0.33589  0.82506  Biso   1.000  O
  O51      1.0000 0.22951  0.18693  0.18278  Biso   1.000  O
  O52      1.0000 0.17112  0.24373  0.24298  Biso   1.000  O
  O53      1.0000 0.14094  0.33657  0.20630  Biso   1.000  O
  O54      1.0000 0.14760  0.20616  0.33189  Biso   1.000  O
  O55      1.0000 0.50593  0.18575  0.90709  Biso   1.000  O
  O56      1.0000 0.56283  0.24126  0.85037  Biso   1.000  O
  O57      1.0000 0.52149  0.33539  0.82525  Biso   1.000  O
  O58      1.0000 0.65591  0.20479  0.82187  Biso   1.000  O
  O59      1.0000 0.14182  0.20548  0.82506  Biso   1.000  O
  O60      1.0000 0.00442  0.68625  0.40923  Biso   1.000  O
  O61      1.0000 0.06282  0.74485  0.34903  Biso   1.000  O
  O62      1.0000 0.09299  0.77086  0.38571  Biso   1.000  O
  O63      1.0000 0.08633  0.77266  0.26012  Biso   1.000  O
  O64      1.0000 0.72800  0.68583  0.68493  Biso   1.000  O
  O65      1.0000 0.67110  0.74154  0.74164  Biso   1.000  O
  O66      1.0000 0.71244  0.76924  0.76676  Biso   1.000  O
  O67      1.0000 0.57802  0.76964  0.77015  Biso   1.000  O
  O68      1.0000 0.09212  0.25945  0.76696  Biso   1.000  O
  O69      1.0000 0.72978  0.68794  0.40266  Biso   1.000  O
  O70      1.0000 0.67078  0.74385  0.34983  Biso   1.000  O
  O71      1.0000 0.58090  0.77036  0.38671  Biso   1.000  O
  O72      1.0000 0.70466  0.77276  0.25813  Biso   1.000  O
  O73      1.0000 0.00364  0.41248  0.67974  Biso   1.000  O
  O74      1.0000 0.06184  0.35248  0.74154  Biso   1.000  O
  O75      1.0000 0.50415  0.90740  0.18936  Biso   1.000  O
  O76      1.0000 0.56315  0.85149  0.24218  Biso   1.000  O
  O77      1.0000 0.65304  0.82498  0.20530  Biso   1.000  O
  O78      1.0000 0.52927  0.82258  0.33388  Biso   1.000  O
  O79      1.0000 0.23029  0.18286  0.91227  Biso   1.000  O
  O80      1.0000 0.17209  0.24285  0.85047  Biso   1.000  O
  O81      1.0000 0.98240  0.49381  0.36588  Biso   1.000  O
  O82      1.0000 0.98479  0.36804  0.49166  Biso   1.000  O
  O83      1.0000 0.68724  0.49489  0.65971  Biso   1.000  O
  O84      1.0000 0.81200  0.36953  0.66250  Biso   1.000  O
  O85      1.0000 0.98271  0.49519  0.66021  Biso   1.000  O
  O86      1.0000 0.25153  0.92912  0.22614  Biso   1.000  O
  O87      1.0000 0.24914  0.93152  0.10035  Biso   1.000  O
  O88      1.0000 0.54669  0.92883  0.93230  Biso   1.000  O
  O89      1.0000 0.42193  0.93103  0.92951  Biso   1.000  O
  O90      1.0000 0.25122  0.22511  0.93180  Biso   1.000  O
  O91      1.0000 0.25154  0.10152  0.22614  Biso   1.000  O
  O92      1.0000 0.24914  0.22730  0.10035  Biso   1.000  O
  O93      1.0000 0.54669  0.10044  0.93230  Biso   1.000  O
  O94      1.0000 0.42193  0.22581  0.92951  Biso   1.000  O
  O95      1.0000 0.25122  0.10014  0.93180  Biso   1.000  O
  O96      1.0000 0.98240  0.66622  0.36588  Biso   1.000  O
  O97      1.0000 0.98480  0.66382  0.49166  Biso   1.000  O
  O98      1.0000 0.68724  0.66650  0.65971  Biso   1.000  O
  O99      1.0000 0.81200  0.66431  0.66250  Biso   1.000  O
  O100     1.0000 0.98271  0.37023  0.66021  Biso   1.000  O
  O101     1.0000 0.86611  0.54862  0.54499  Biso   1.000  O
  O102     1.0000 0.81179  0.66482  0.36687  Biso   1.000  O
  O103     1.0000 0.68853  0.66641  0.48698  Biso   1.000  O
  O104     1.0000 0.36782  0.04672  0.04703  Biso   1.000  O
  O105     1.0000 0.42214  0.93051  0.22514  Biso   1.000  O
  O106     1.0000 0.54541  0.92893  0.10503  Biso   1.000  O
