data_image0
_cell_length_a       18.3063
_cell_length_b       18.3063
_cell_length_c       18.3063
_cell_angle_alpha    60
_cell_angle_beta     60
_cell_angle_gamma    60

_symmetry_space_group_name_H-M    "P 1"
_symmetry_int_tables_number       1

loop_
  _symmetry_equiv_pos_as_xyz
  'x, y, z'

loop_
  _atom_site_label
  _atom_site_occupancy
  _atom_site_fract_x
  _atom_site_fract_y
  _atom_site_fract_z
  _atom_site_thermal_displace_type
  _atom_site_B_iso_or_equiv
  _atom_site_type_symbol
  Zn1      1.0000 0.20664  0.38006  0.20665  Biso   1.000  Zn
  Zn2      1.0000 0.38005  0.20665  0.20665  Biso   1.000  Zn
  Zn3      1.0000 0.20664  0.20665  0.20665  Biso   1.000  Zn
  Zn4      1.0000 0.20664  0.20665  0.38006  Biso   1.000  Zn
  Zn5      1.0000 0.61995  0.79335  0.79335  Biso   1.000  Zn
  Zn6      1.0000 0.79336  0.61994  0.79335  Biso   1.000  Zn
  Zn7      1.0000 0.79336  0.79335  0.79335  Biso   1.000  Zn
  Zn8      1.0000 0.79336  0.79335  0.61994  Biso   1.000  Zn
  H1       1.0000 0.04520  0.56560  0.04520  Biso   1.000  H
  H2       1.0000 0.56560  0.04520  0.34400  Biso   1.000  H
  H3       1.0000 0.04520  0.34400  0.04520  Biso   1.000  H
  H4       1.0000 0.34400  0.04520  0.56560  Biso   1.000  H
  H5       1.0000 0.04520  0.04520  0.34400  Biso   1.000  H
  H6       1.0000 0.56560  0.34400  0.04520  Biso   1.000  H
  H7       1.0000 0.04520  0.04520  0.56560  Biso   1.000  H
  H8       1.0000 0.34400  0.56560  0.04520  Biso   1.000  H
  H9       1.0000 0.04520  0.34400  0.56560  Biso   1.000  H
  H10      1.0000 0.56560  0.04520  0.04520  Biso   1.000  H
  H11      1.0000 0.04520  0.56560  0.34400  Biso   1.000  H
  H12      1.0000 0.34400  0.04520  0.04520  Biso   1.000  H
  H13      1.0000 0.43440  0.95480  0.95480  Biso   1.000  H
  H14      1.0000 0.95480  0.43440  0.65600  Biso   1.000  H
  H15      1.0000 0.65600  0.95480  0.95480  Biso   1.000  H
  H16      1.0000 0.95480  0.65600  0.43440  Biso   1.000  H
  H17      1.0000 0.95480  0.95480  0.65600  Biso   1.000  H
  H18      1.0000 0.65600  0.43440  0.95480  Biso   1.000  H
  H19      1.0000 0.95480  0.95480  0.43440  Biso   1.000  H
  H20      1.0000 0.43440  0.65600  0.95480  Biso   1.000  H
  H21      1.0000 0.65600  0.95480  0.43440  Biso   1.000  H
  H22      1.0000 0.95480  0.43440  0.95480  Biso   1.000  H
  H23      1.0000 0.43440  0.95480  0.65600  Biso   1.000  H
  H24      1.0000 0.95480  0.65600  0.95480  Biso   1.000  H
  C1       1.0000 0.02683  0.53905  0.02683  Biso   1.000  C
  C2       1.0000 0.53905  0.02683  0.40729  Biso   1.000  C
  C3       1.0000 0.02683  0.40729  0.02683  Biso   1.000  C
  C4       1.0000 0.40729  0.02683  0.53905  Biso   1.000  C
  C5       1.0000 0.02683  0.02683  0.40729  Biso   1.000  C
  C6       1.0000 0.53905  0.40729  0.02683  Biso   1.000  C
  C7       1.0000 0.02683  0.02683  0.53905  Biso   1.000  C
  C8       1.0000 0.40729  0.53905  0.02683  Biso   1.000  C
  C9       1.0000 0.02683  0.40729  0.53905  Biso   1.000  C
  C10      1.0000 0.53905  0.02683  0.02683  Biso   1.000  C
  C11      1.0000 0.02683  0.53905  0.40729  Biso   1.000  C
  C12      1.0000 0.40729  0.02683  0.02683  Biso   1.000  C
  C13      1.0000 0.46095  0.97317  0.97317  Biso   1.000  C
  C14      1.0000 0.97317  0.46095  0.59271  Biso   1.000  C
  C15      1.0000 0.59271  0.97317  0.97317  Biso   1.000  C
  C16      1.0000 0.97317  0.59271  0.46095  Biso   1.000  C
  C17      1.0000 0.97317  0.97317  0.59271  Biso   1.000  C
  C18      1.0000 0.59271  0.46095  0.97317  Biso   1.000  C
  C19      1.0000 0.97317  0.97317  0.46095  Biso   1.000  C
  C20      1.0000 0.46095  0.59271  0.97317  Biso   1.000  C
  C21      1.0000 0.59271  0.97317  0.46095  Biso   1.000  C
  C22      1.0000 0.97317  0.46095  0.97317  Biso   1.000  C
  C23      1.0000 0.46095  0.97317  0.59271  Biso   1.000  C
  C24      1.0000 0.97317  0.59271  0.97317  Biso   1.000  C
  C25      1.0000 0.11144  0.38856  0.11144  Biso   1.000  C
  C26      1.0000 0.05381  0.44619  0.05381  Biso   1.000  C
  C27      1.0000 0.38856  0.11144  0.38856  Biso   1.000  C
  C28      1.0000 0.44619  0.05381  0.44619  Biso   1.000  C
  C29      1.0000 0.11144  0.11144  0.38856  Biso   1.000  C
  C30      1.0000 0.05381  0.05381  0.44619  Biso   1.000  C
  C31      1.0000 0.38856  0.38856  0.11144  Biso   1.000  C
  C32      1.0000 0.44619  0.44619  0.05381  Biso   1.000  C
  C33      1.0000 0.11144  0.38856  0.38856  Biso   1.000  C
  C34      1.0000 0.05381  0.44619  0.44619  Biso   1.000  C
  C35      1.0000 0.38856  0.11144  0.11144  Biso   1.000  C
  C36      1.0000 0.44619  0.05381  0.05381  Biso   1.000  C
  C37      1.0000 0.61144  0.88856  0.88856  Biso   1.000  C
  C38      1.0000 0.55381  0.94619  0.94619  Biso   1.000  C
  C39      1.0000 0.88856  0.61144  0.61144  Biso   1.000  C
  C40      1.0000 0.94619  0.55381  0.55381  Biso   1.000  C
  C41      1.0000 0.88856  0.88856  0.61144  Biso   1.000  C
  C42      1.0000 0.94619  0.94619  0.55381  Biso   1.000  C
  C43      1.0000 0.61144  0.61144  0.88856  Biso   1.000  C
  C44      1.0000 0.55381  0.55381  0.94619  Biso   1.000  C
  C45      1.0000 0.61144  0.88856  0.61144  Biso   1.000  C
  C46      1.0000 0.55381  0.94619  0.55381  Biso   1.000  C
  C47      1.0000 0.88856  0.61144  0.88856  Biso   1.000  C
  C48      1.0000 0.94619  0.55381  0.94619  Biso   1.000  C
  O1       1.0000 0.25000  0.25000  0.25000  Biso   1.000  O
  O2       1.0000 0.75000  0.75000  0.75000  Biso   1.000  O
  O3       1.0000 0.13368  0.42768  0.13368  Biso   1.000  O
  O4       1.0000 0.42768  0.13368  0.30496  Biso   1.000  O
  O5       1.0000 0.13368  0.30496  0.13368  Biso   1.000  O
  O6       1.0000 0.30496  0.13368  0.42768  Biso   1.000  O
  O7       1.0000 0.13368  0.13368  0.30496  Biso   1.000  O
  O8       1.0000 0.42768  0.30496  0.13368  Biso   1.000  O
  O9       1.0000 0.13368  0.13368  0.42768  Biso   1.000  O
  O10      1.0000 0.30496  0.42768  0.13368  Biso   1.000  O
  O11      1.0000 0.13368  0.30496  0.42768  Biso   1.000  O
  O12      1.0000 0.42768  0.13368  0.13368  Biso   1.000  O
  O13      1.0000 0.13368  0.42768  0.30496  Biso   1.000  O
  O14      1.0000 0.30496  0.13368  0.13368  Biso   1.000  O
  O15      1.0000 0.57232  0.86632  0.86632  Biso   1.000  O
  O16      1.0000 0.86632  0.57232  0.69504  Biso   1.000  O
  O17      1.0000 0.69504  0.86632  0.86632  Biso   1.000  O
  O18      1.0000 0.86632  0.69504  0.57232  Biso   1.000  O
  O19      1.0000 0.86632  0.86632  0.69504  Biso   1.000  O
  O20      1.0000 0.69504  0.57232  0.86632  Biso   1.000  O
  O21      1.0000 0.86632  0.86632  0.57232  Biso   1.000  O
  O22      1.0000 0.57232  0.69504  0.86632  Biso   1.000  O
  O23      1.0000 0.69504  0.86632  0.57232  Biso   1.000  O
  O24      1.0000 0.86632  0.57232  0.86632  Biso   1.000  O
  O25      1.0000 0.57232  0.86632  0.69504  Biso   1.000  O
  O26      1.0000 0.86632  0.69504  0.86632  Biso   1.000  O
  Zn9      1.0000 0.90736  0.59543  0.58978  Biso   1.000  Zn
  Zn10     1.0000 0.32344  0.17935  0.00581  Biso   1.000  Zn
  Zn11     1.0000 0.32344  0.00603  0.00581  Biso   1.000  Zn
  Zn12     1.0000 0.90736  0.42211  0.58978  Biso   1.000  Zn
  Zn13     1.0000 0.90710  0.59562  0.41630  Biso   1.000  Zn
  Zn14     1.0000 0.73370  0.59550  0.58999  Biso   1.000  Zn
  Zn15     1.0000 0.32369  0.00583  0.17929  Biso   1.000  Zn
  Zn16     1.0000 0.49710  0.00596  0.00561  Biso   1.000  Zn
  H25      1.0000 0.07397  0.23431  0.44921  Biso   1.000  H
  H26      1.0000 0.06269  0.45511  0.23656  Biso   1.000  H
  H27      1.0000 0.77490  0.23628  0.74995  Biso   1.000  H
  H28      1.0000 0.54912  0.45627  0.75522  Biso   1.000  H
  H29      1.0000 0.07568  0.45568  0.74816  Biso   1.000  H
  H30      1.0000 0.15682  0.84427  0.14638  Biso   1.000  H
  H31      1.0000 0.16810  0.84118  0.35904  Biso   1.000  H
  H32      1.0000 0.45590  0.84787  0.84564  Biso   1.000  H
  H33      1.0000 0.68167  0.84737  0.84037  Biso   1.000  H
  H34      1.0000 0.15511  0.36626  0.84743  Biso   1.000  H
  H35      1.0000 0.15682  0.36714  0.14638  Biso   1.000  H
  H36      1.0000 0.16810  0.14635  0.35904  Biso   1.000  H
  H37      1.0000 0.45590  0.36517  0.84564  Biso   1.000  H
  H38      1.0000 0.68168  0.14518  0.84037  Biso   1.000  H
  H39      1.0000 0.15512  0.14578  0.84743  Biso   1.000  H
  H40      1.0000 0.07397  0.75718  0.44921  Biso   1.000  H
  H41      1.0000 0.06269  0.76027  0.23656  Biso   1.000  H
  H42      1.0000 0.77489  0.75359  0.74995  Biso   1.000  H
  H43      1.0000 0.54912  0.75408  0.75522  Biso   1.000  H
  H44      1.0000 0.07568  0.23519  0.74816  Biso   1.000  H
  H45      1.0000 0.55298  0.75589  0.44991  Biso   1.000  H
  H46      1.0000 0.76479  0.75858  0.23268  Biso   1.000  H
  H47      1.0000 0.67781  0.84557  0.14569  Biso   1.000  H
  H48      1.0000 0.46600  0.84287  0.36292  Biso   1.000  H
  C49      1.0000 0.00187  0.41246  0.41074  Biso   1.000  C
  C50      1.0000 0.06011  0.35580  0.35069  Biso   1.000  C
  C51      1.0000 0.09276  0.26066  0.38727  Biso   1.000  C
  C52      1.0000 0.08357  0.39328  0.26201  Biso   1.000  C
  C53      1.0000 0.72614  0.41363  0.68573  Biso   1.000  C
  C54      1.0000 0.66939  0.35826  0.74230  Biso   1.000  C
  C55      1.0000 0.71317  0.26183  0.76735  Biso   1.000  C
  C56      1.0000 0.57655  0.39464  0.77073  Biso   1.000  C
  C57      1.0000 0.09188  0.39395  0.76755  Biso   1.000  C
  C58      1.0000 0.22892  0.91186  0.18486  Biso   1.000  C
  C59      1.0000 0.17068  0.85341  0.24491  Biso   1.000  C
  C60      1.0000 0.13804  0.82747  0.20832  Biso   1.000  C
  C61      1.0000 0.14722  0.82568  0.33359  Biso   1.000  C
  C62      1.0000 0.50465  0.91228  0.90987  Biso   1.000  C
  C63      1.0000 0.56140  0.85671  0.85330  Biso   1.000  C
  C64      1.0000 0.51763  0.82908  0.82824  Biso   1.000  C
  C65      1.0000 0.65424  0.82868  0.82486  Biso   1.000  C
  C66      1.0000 0.13891  0.34012  0.82804  Biso   1.000  C
  C67      1.0000 0.22893  0.18900  0.18486  Biso   1.000  C
  C68      1.0000 0.17068  0.24565  0.24491  Biso   1.000  C
  C69      1.0000 0.13803  0.34080  0.20832  Biso   1.000  C
  C70      1.0000 0.14723  0.20818  0.33359  Biso   1.000  C
  C71      1.0000 0.50465  0.18782  0.90987  Biso   1.000  C
  C72      1.0000 0.56140  0.24319  0.85330  Biso   1.000  C
  C73      1.0000 0.51762  0.33962  0.82824  Biso   1.000  C
  C74      1.0000 0.65424  0.20681  0.82486  Biso   1.000  C
  C75      1.0000 0.13891  0.20751  0.82804  Biso   1.000  C
  C76      1.0000 0.00187  0.68959  0.41074  Biso   1.000  C
  C77      1.0000 0.06011  0.74804  0.35069  Biso   1.000  C
  C78      1.0000 0.09276  0.77398  0.38727  Biso   1.000  C
  C79      1.0000 0.08357  0.77578  0.26201  Biso   1.000  C
  C80      1.0000 0.72615  0.68918  0.68573  Biso   1.000  C
  C81      1.0000 0.66939  0.74474  0.74230  Biso   1.000  C
  C82      1.0000 0.71317  0.77237  0.76735  Biso   1.000  C
  C83      1.0000 0.57655  0.77277  0.77073  Biso   1.000  C
  C84      1.0000 0.09188  0.26133  0.76755  Biso   1.000  C
  C85      1.0000 0.72792  0.69128  0.40417  Biso   1.000  C
  C86      1.0000 0.66907  0.74705  0.35148  Biso   1.000  C
  C87      1.0000 0.57942  0.77349  0.38827  Biso   1.000  C
  C88      1.0000 0.70287  0.77588  0.26002  Biso   1.000  C
  C89      1.0000 0.00108  0.41652  0.68056  Biso   1.000  C
  C90      1.0000 0.05914  0.35667  0.74220  Biso   1.000  C
  C91      1.0000 0.50287  0.91017  0.19142  Biso   1.000  C
  C92      1.0000 0.56172  0.85441  0.24411  Biso   1.000  C
  C93      1.0000 0.65137  0.82797  0.20733  Biso   1.000  C
  C94      1.0000 0.52793  0.82558  0.33558  Biso   1.000  C
  C95      1.0000 0.22971  0.18494  0.91504  Biso   1.000  C
  C96      1.0000 0.17166  0.24478  0.85340  Biso   1.000  C
  O27      1.0000 0.97990  0.49765  0.36749  Biso   1.000  O
  O28      1.0000 0.98229  0.37219  0.49296  Biso   1.000  O
  O29      1.0000 0.68549  0.49872  0.66058  Biso   1.000  O
  O30      1.0000 0.80994  0.37368  0.66336  Biso   1.000  O
  O31      1.0000 0.98021  0.49902  0.66107  Biso   1.000  O
  O32      1.0000 0.25089  0.93184  0.22810  Biso   1.000  O
  O33      1.0000 0.24850  0.93423  0.10264  Biso   1.000  O
  O34      1.0000 0.54530  0.93156  0.93502  Biso   1.000  O
  O35      1.0000 0.42085  0.93375  0.93224  Biso   1.000  O
  O36      1.0000 0.25058  0.22708  0.93452  Biso   1.000  O
  O37      1.0000 0.25090  0.10381  0.22810  Biso   1.000  O
  O38      1.0000 0.24850  0.22926  0.10264  Biso   1.000  O
  O39      1.0000 0.54530  0.10273  0.93502  Biso   1.000  O
  O40      1.0000 0.42085  0.22778  0.93224  Biso   1.000  O
  O41      1.0000 0.25058  0.10243  0.93452  Biso   1.000  O
  O42      1.0000 0.97990  0.66961  0.36749  Biso   1.000  O
  O43      1.0000 0.98229  0.66722  0.49296  Biso   1.000  O
  O44      1.0000 0.68549  0.66989  0.66058  Biso   1.000  O
  O45      1.0000 0.80994  0.66771  0.66336  Biso   1.000  O
  O46      1.0000 0.98021  0.37437  0.66107  Biso   1.000  O
  O47      1.0000 0.86391  0.55231  0.54614  Biso   1.000  O
  O48      1.0000 0.80973  0.66822  0.36848  Biso   1.000  O
  O49      1.0000 0.68677  0.66980  0.48828  Biso   1.000  O
  O50      1.0000 0.36689  0.04915  0.04945  Biso   1.000  O
  O51      1.0000 0.42107  0.93323  0.22711  Biso   1.000  O
  O52      1.0000 0.54402  0.93165  0.10731  Biso   1.000  O
