data_image0
_cell_length_a       18.3127
_cell_length_b       18.3127
_cell_length_c       18.3127
_cell_angle_alpha    60
_cell_angle_beta     60
_cell_angle_gamma    60

_symmetry_space_group_name_H-M    "P 1"
_symmetry_int_tables_number       1

loop_
  _symmetry_equiv_pos_as_xyz
  'x, y, z'

loop_
  _atom_site_label
  _atom_site_occupancy
  _atom_site_fract_x
  _atom_site_fract_y
  _atom_site_fract_z
  _atom_site_thermal_displace_type
  _atom_site_B_iso_or_equiv
  _atom_site_type_symbol
  Zn1      1.0000 0.20666  0.38001  0.20666  Biso   1.000  Zn
  Zn2      1.0000 0.38001  0.20666  0.20666  Biso   1.000  Zn
  Zn3      1.0000 0.20667  0.20666  0.20666  Biso   1.000  Zn
  Zn4      1.0000 0.20667  0.20666  0.38001  Biso   1.000  Zn
  Zn5      1.0000 0.61999  0.79334  0.79334  Biso   1.000  Zn
  Zn6      1.0000 0.79334  0.61999  0.79333  Biso   1.000  Zn
  Zn7      1.0000 0.79334  0.79333  0.79334  Biso   1.000  Zn
  Zn8      1.0000 0.79334  0.79333  0.61999  Biso   1.000  Zn
  H1       1.0000 0.04520  0.56580  0.04520  Biso   1.000  H
  H2       1.0000 0.56580  0.04520  0.34380  Biso   1.000  H
  H3       1.0000 0.04520  0.34380  0.04520  Biso   1.000  H
  H4       1.0000 0.34380  0.04520  0.56580  Biso   1.000  H
  H5       1.0000 0.04520  0.04520  0.34380  Biso   1.000  H
  H6       1.0000 0.56580  0.34380  0.04520  Biso   1.000  H
  H7       1.0000 0.04520  0.04520  0.56580  Biso   1.000  H
  H8       1.0000 0.34380  0.56580  0.04520  Biso   1.000  H
  H9       1.0000 0.04520  0.34380  0.56580  Biso   1.000  H
  H10      1.0000 0.56580  0.04520  0.04520  Biso   1.000  H
  H11      1.0000 0.04520  0.56580  0.34380  Biso   1.000  H
  H12      1.0000 0.34380  0.04520  0.04520  Biso   1.000  H
  H13      1.0000 0.43420  0.95480  0.95480  Biso   1.000  H
  H14      1.0000 0.95480  0.43420  0.65620  Biso   1.000  H
  H15      1.0000 0.65620  0.95480  0.95480  Biso   1.000  H
  H16      1.0000 0.95480  0.65620  0.43420  Biso   1.000  H
  H17      1.0000 0.95480  0.95480  0.65620  Biso   1.000  H
  H18      1.0000 0.65620  0.43420  0.95480  Biso   1.000  H
  H19      1.0000 0.95480  0.95480  0.43420  Biso   1.000  H
  H20      1.0000 0.43420  0.65620  0.95480  Biso   1.000  H
  H21      1.0000 0.65620  0.95480  0.43420  Biso   1.000  H
  H22      1.0000 0.95480  0.43420  0.95480  Biso   1.000  H
  H23      1.0000 0.43420  0.95480  0.65620  Biso   1.000  H
  H24      1.0000 0.95480  0.65620  0.95480  Biso   1.000  H
  C1       1.0000 0.02688  0.53930  0.02688  Biso   1.000  C
  C2       1.0000 0.53930  0.02688  0.40694  Biso   1.000  C
  C3       1.0000 0.02688  0.40694  0.02688  Biso   1.000  C
  C4       1.0000 0.40694  0.02688  0.53930  Biso   1.000  C
  C5       1.0000 0.02688  0.02688  0.40694  Biso   1.000  C
  C6       1.0000 0.53930  0.40694  0.02688  Biso   1.000  C
  C7       1.0000 0.02688  0.02688  0.53930  Biso   1.000  C
  C8       1.0000 0.40694  0.53930  0.02688  Biso   1.000  C
  C9       1.0000 0.02688  0.40694  0.53930  Biso   1.000  C
  C10      1.0000 0.53930  0.02688  0.02688  Biso   1.000  C
  C11      1.0000 0.02688  0.53930  0.40694  Biso   1.000  C
  C12      1.0000 0.40694  0.02688  0.02688  Biso   1.000  C
  C13      1.0000 0.46070  0.97312  0.97312  Biso   1.000  C
  C14      1.0000 0.97312  0.46070  0.59306  Biso   1.000  C
  C15      1.0000 0.59306  0.97312  0.97312  Biso   1.000  C
  C16      1.0000 0.97312  0.59306  0.46070  Biso   1.000  C
  C17      1.0000 0.97312  0.97312  0.59306  Biso   1.000  C
  C18      1.0000 0.59306  0.46070  0.97312  Biso   1.000  C
  C19      1.0000 0.97312  0.97312  0.46070  Biso   1.000  C
  C20      1.0000 0.46070  0.59306  0.97312  Biso   1.000  C
  C21      1.0000 0.59306  0.97312  0.46070  Biso   1.000  C
  C22      1.0000 0.97312  0.46070  0.97312  Biso   1.000  C
  C23      1.0000 0.46070  0.97312  0.59306  Biso   1.000  C
  C24      1.0000 0.97312  0.59306  0.97312  Biso   1.000  C
  C25      1.0000 0.11142  0.38858  0.11142  Biso   1.000  C
  C26      1.0000 0.05381  0.44619  0.05381  Biso   1.000  C
  C27      1.0000 0.38858  0.11142  0.38858  Biso   1.000  C
  C28      1.0000 0.44619  0.05381  0.44619  Biso   1.000  C
  C29      1.0000 0.11142  0.11142  0.38858  Biso   1.000  C
  C30      1.0000 0.05381  0.05381  0.44619  Biso   1.000  C
  C31      1.0000 0.38858  0.38858  0.11142  Biso   1.000  C
  C32      1.0000 0.44619  0.44619  0.05381  Biso   1.000  C
  C33      1.0000 0.11142  0.38858  0.38858  Biso   1.000  C
  C34      1.0000 0.05381  0.44619  0.44619  Biso   1.000  C
  C35      1.0000 0.38858  0.11142  0.11142  Biso   1.000  C
  C36      1.0000 0.44619  0.05381  0.05381  Biso   1.000  C
  C37      1.0000 0.61142  0.88858  0.88858  Biso   1.000  C
  C38      1.0000 0.55381  0.94619  0.94619  Biso   1.000  C
  C39      1.0000 0.88858  0.61142  0.61142  Biso   1.000  C
  C40      1.0000 0.94619  0.55381  0.55381  Biso   1.000  C
  C41      1.0000 0.88858  0.88858  0.61142  Biso   1.000  C
  C42      1.0000 0.94619  0.94619  0.55381  Biso   1.000  C
  C43      1.0000 0.61142  0.61142  0.88858  Biso   1.000  C
  C44      1.0000 0.55381  0.55381  0.94619  Biso   1.000  C
  C45      1.0000 0.61142  0.88858  0.61142  Biso   1.000  C
  C46      1.0000 0.55381  0.94619  0.55381  Biso   1.000  C
  C47      1.0000 0.88858  0.61142  0.88858  Biso   1.000  C
  C48      1.0000 0.94619  0.55381  0.94619  Biso   1.000  C
  O1       1.0000 0.25000  0.25000  0.25000  Biso   1.000  O
  O2       1.0000 0.75000  0.75000  0.75000  Biso   1.000  O
  O3       1.0000 0.13369  0.42773  0.13369  Biso   1.000  O
  O4       1.0000 0.42773  0.13369  0.30489  Biso   1.000  O
  O5       1.0000 0.13369  0.30489  0.13369  Biso   1.000  O
  O6       1.0000 0.30489  0.13369  0.42773  Biso   1.000  O
  O7       1.0000 0.13369  0.13369  0.30489  Biso   1.000  O
  O8       1.0000 0.42773  0.30489  0.13369  Biso   1.000  O
  O9       1.0000 0.13369  0.13369  0.42773  Biso   1.000  O
  O10      1.0000 0.30489  0.42773  0.13369  Biso   1.000  O
  O11      1.0000 0.13369  0.30489  0.42773  Biso   1.000  O
  O12      1.0000 0.42773  0.13369  0.13369  Biso   1.000  O
  O13      1.0000 0.13369  0.42773  0.30489  Biso   1.000  O
  O14      1.0000 0.30489  0.13369  0.13369  Biso   1.000  O
  O15      1.0000 0.57227  0.86631  0.86631  Biso   1.000  O
  O16      1.0000 0.86631  0.57227  0.69511  Biso   1.000  O
  O17      1.0000 0.69511  0.86631  0.86631  Biso   1.000  O
  O18      1.0000 0.86631  0.69511  0.57227  Biso   1.000  O
  O19      1.0000 0.86631  0.86631  0.69511  Biso   1.000  O
  O20      1.0000 0.69511  0.57227  0.86631  Biso   1.000  O
  O21      1.0000 0.86631  0.86631  0.57227  Biso   1.000  O
  O22      1.0000 0.57227  0.69511  0.86631  Biso   1.000  O
  O23      1.0000 0.69511  0.86631  0.57227  Biso   1.000  O
  O24      1.0000 0.86631  0.57227  0.86631  Biso   1.000  O
  O25      1.0000 0.57227  0.86631  0.69511  Biso   1.000  O
  O26      1.0000 0.86631  0.69511  0.86631  Biso   1.000  O
  Zn9      1.0000 0.59197  0.07700  0.72139  Biso   1.000  Zn
  Zn10     1.0000 0.59197  0.25119  0.72139  Biso   1.000  Zn
  Zn11     1.0000 0.41778  0.25119  0.72139  Biso   1.000  Zn
  Zn12     1.0000 0.59197  0.25119  0.54720  Biso   1.000  Zn
  Zn13     1.0000 0.00302  0.66471  0.13491  Biso   1.000  Zn
  Zn14     1.0000 0.00302  0.83889  0.13491  Biso   1.000  Zn
  Zn15     1.0000 0.17721  0.66471  0.13491  Biso   1.000  Zn
  Zn16     1.0000 0.00302  0.66471  0.30909  Biso   1.000  Zn
  H25      1.0000 0.46123  0.89233  0.87909  Biso   1.000  H
  H26      1.0000 0.74967  0.40889  0.59065  Biso   1.000  H
  H27      1.0000 0.23311  0.12045  0.87909  Biso   1.000  H
  H28      1.0000 0.74967  0.40889  0.36253  Biso   1.000  H
  H29      1.0000 0.23311  0.40889  0.59065  Biso   1.000  H
  H30      1.0000 0.74967  0.12045  0.87909  Biso   1.000  H
  H31      1.0000 0.46123  0.40889  0.36253  Biso   1.000  H
  H32      1.0000 0.74967  0.89233  0.87909  Biso   1.000  H
  H33      1.0000 0.74967  0.12045  0.36253  Biso   1.000  H
  H34      1.0000 0.46123  0.40889  0.87909  Biso   1.000  H
  H35      1.0000 0.74967  0.89233  0.59065  Biso   1.000  H
  H36      1.0000 0.23311  0.40889  0.87909  Biso   1.000  H
  H37      1.0000 0.13376  0.50700  0.97720  Biso   1.000  H
  H38      1.0000 0.84532  0.02357  0.26565  Biso   1.000  H
  H39      1.0000 0.36188  0.50700  0.97720  Biso   1.000  H
  H40      1.0000 0.84532  0.79545  0.49377  Biso   1.000  H
  H41      1.0000 0.36188  0.50700  0.26565  Biso   1.000  H
  H42      1.0000 0.84532  0.02357  0.97720  Biso   1.000  H
  H43      1.0000 0.13376  0.50700  0.49377  Biso   1.000  H
  H44      1.0000 0.84532  0.79545  0.97720  Biso   1.000  H
  H45      1.0000 0.84532  0.50700  0.49377  Biso   1.000  H
  H46      1.0000 0.13376  0.02357  0.97720  Biso   1.000  H
  H47      1.0000 0.84532  0.50700  0.26565  Biso   1.000  H
  H48      1.0000 0.36188  0.79545  0.97720  Biso   1.000  H
  C49      1.0000 0.39061  0.91880  0.90116  Biso   1.000  C
  C50      1.0000 0.77174  0.43096  0.52003  Biso   1.000  C
  C51      1.0000 0.25958  0.04983  0.90116  Biso   1.000  C
  C52      1.0000 0.77174  0.43096  0.38900  Biso   1.000  C
  C53      1.0000 0.25958  0.43096  0.52003  Biso   1.000  C
  C54      1.0000 0.77174  0.04983  0.90116  Biso   1.000  C
  C55      1.0000 0.39061  0.43096  0.38900  Biso   1.000  C
  C56      1.0000 0.77174  0.91880  0.90116  Biso   1.000  C
  C57      1.0000 0.77174  0.04983  0.38900  Biso   1.000  C
  C58      1.0000 0.39061  0.43096  0.90116  Biso   1.000  C
  C59      1.0000 0.77174  0.91880  0.52003  Biso   1.000  C
  C60      1.0000 0.25958  0.43096  0.90116  Biso   1.000  C
  C61      1.0000 0.20437  0.48493  0.95513  Biso   1.000  C
  C62      1.0000 0.82324  0.99710  0.33626  Biso   1.000  C
  C63      1.0000 0.33541  0.48493  0.95513  Biso   1.000  C
  C64      1.0000 0.82324  0.86606  0.46730  Biso   1.000  C
  C65      1.0000 0.33541  0.48493  0.33626  Biso   1.000  C
  C66      1.0000 0.82324  0.99710  0.95513  Biso   1.000  C
  C67      1.0000 0.20437  0.48493  0.46730  Biso   1.000  C
  C68      1.0000 0.82324  0.86606  0.95513  Biso   1.000  C
  C69      1.0000 0.82324  0.48493  0.46730  Biso   1.000  C
  C70      1.0000 0.20437  0.99710  0.95513  Biso   1.000  C
  C71      1.0000 0.82324  0.48493  0.33626  Biso   1.000  C
  C72      1.0000 0.33541  0.86606  0.95513  Biso   1.000  C
  C73      1.0000 0.40909  0.06831  0.81717  Biso   1.000  C
  C74      1.0000 0.35296  0.01218  0.87330  Biso   1.000  C
  C75      1.0000 0.68775  0.34697  0.53851  Biso   1.000  C
  C76      1.0000 0.74388  0.40310  0.48238  Biso   1.000  C
  C77      1.0000 0.40909  0.34697  0.53851  Biso   1.000  C
  C78      1.0000 0.35296  0.40310  0.48238  Biso   1.000  C
  C79      1.0000 0.68775  0.06831  0.81717  Biso   1.000  C
  C80      1.0000 0.74388  0.01218  0.87330  Biso   1.000  C
  C81      1.0000 0.68775  0.06831  0.53851  Biso   1.000  C
  C82      1.0000 0.74388  0.01218  0.48238  Biso   1.000  C
  C83      1.0000 0.40909  0.34697  0.81717  Biso   1.000  C
  C84      1.0000 0.35296  0.40310  0.87330  Biso   1.000  C
  C85      1.0000 0.18590  0.56893  0.03913  Biso   1.000  C
  C86      1.0000 0.24203  0.51280  0.98300  Biso   1.000  C
  C87      1.0000 0.90724  0.84758  0.31778  Biso   1.000  C
  C88      1.0000 0.85111  0.90371  0.37391  Biso   1.000  C
  C89      1.0000 0.18590  0.56893  0.31778  Biso   1.000  C
  C90      1.0000 0.24203  0.51280  0.37391  Biso   1.000  C
  C91      1.0000 0.90724  0.84758  0.03913  Biso   1.000  C
  C92      1.0000 0.85111  0.90371  0.98300  Biso   1.000  C
  C93      1.0000 0.90724  0.56893  0.31778  Biso   1.000  C
  C94      1.0000 0.85111  0.51280  0.37391  Biso   1.000  C
  C95      1.0000 0.18590  0.84758  0.03913  Biso   1.000  C
  C96      1.0000 0.24203  0.90371  0.98300  Biso   1.000  C
  O27      1.0000 0.54842  0.20764  0.67784  Biso   1.000  O
  O28      1.0000 0.04657  0.70826  0.17846  Biso   1.000  O
  O29      1.0000 0.49339  0.02956  0.79440  Biso   1.000  O
  O30      1.0000 0.66498  0.32420  0.62281  Biso   1.000  O
  O31      1.0000 0.37034  0.15261  0.79440  Biso   1.000  O
  O32      1.0000 0.66498  0.32420  0.49976  Biso   1.000  O
  O33      1.0000 0.37034  0.32420  0.62281  Biso   1.000  O
  O34      1.0000 0.66498  0.15261  0.79440  Biso   1.000  O
  O35      1.0000 0.49339  0.32420  0.49976  Biso   1.000  O
  O36      1.0000 0.66498  0.02956  0.79440  Biso   1.000  O
  O37      1.0000 0.66498  0.15261  0.49976  Biso   1.000  O
  O38      1.0000 0.49339  0.32420  0.79440  Biso   1.000  O
  O39      1.0000 0.66498  0.02956  0.62281  Biso   1.000  O
  O40      1.0000 0.37034  0.32420  0.79440  Biso   1.000  O
  O41      1.0000 0.10160  0.59170  0.06190  Biso   1.000  O
  O42      1.0000 0.93001  0.88634  0.23349  Biso   1.000  O
  O43      1.0000 0.22465  0.59170  0.06190  Biso   1.000  O
  O44      1.0000 0.93001  0.76329  0.35654  Biso   1.000  O
  O45      1.0000 0.22465  0.59170  0.23349  Biso   1.000  O
  O46      1.0000 0.93001  0.88634  0.06190  Biso   1.000  O
  O47      1.0000 0.10160  0.59170  0.35654  Biso   1.000  O
  O48      1.0000 0.93001  0.76329  0.06190  Biso   1.000  O
  O49      1.0000 0.93001  0.59170  0.35654  Biso   1.000  O
  O50      1.0000 0.10160  0.88634  0.06190  Biso   1.000  O
  O51      1.0000 0.93001  0.59170  0.23349  Biso   1.000  O
  O52      1.0000 0.22465  0.76329  0.06190  Biso   1.000  O
