data_image0
_cell_length_a       18.3063
_cell_length_b       18.3063
_cell_length_c       18.3063
_cell_angle_alpha    60
_cell_angle_beta     60
_cell_angle_gamma    60

_symmetry_space_group_name_H-M    "P 1"
_symmetry_int_tables_number       1

loop_
  _symmetry_equiv_pos_as_xyz
  'x, y, z'

loop_
  _atom_site_label
  _atom_site_occupancy
  _atom_site_fract_x
  _atom_site_fract_y
  _atom_site_fract_z
  _atom_site_thermal_displace_type
  _atom_site_B_iso_or_equiv
  _atom_site_type_symbol
  C1       1.0000 0.20664  0.38006  0.20665  Biso   1.000  C
  C2       1.0000 0.38005  0.20665  0.20665  Biso   1.000  C
  C3       1.0000 0.20664  0.20665  0.20665  Biso   1.000  C
  C4       1.0000 0.20664  0.20665  0.38006  Biso   1.000  C
  C5       1.0000 0.61995  0.79335  0.79335  Biso   1.000  C
  C6       1.0000 0.79336  0.61994  0.79335  Biso   1.000  C
  C7       1.0000 0.79336  0.79335  0.79335  Biso   1.000  C
  C8       1.0000 0.79336  0.79335  0.61994  Biso   1.000  C
  C9       1.0000 0.04520  0.56560  0.04520  Biso   1.000  C
  C10      1.0000 0.56560  0.04520  0.34400  Biso   1.000  C
  C11      1.0000 0.04520  0.34400  0.04520  Biso   1.000  C
  C12      1.0000 0.34400  0.04520  0.56560  Biso   1.000  C
  C13      1.0000 0.04520  0.04520  0.34400  Biso   1.000  C
  C14      1.0000 0.56560  0.34400  0.04520  Biso   1.000  C
  C15      1.0000 0.04520  0.04520  0.56560  Biso   1.000  C
  C16      1.0000 0.34400  0.56560  0.04520  Biso   1.000  C
  C17      1.0000 0.04520  0.34400  0.56560  Biso   1.000  C
  C18      1.0000 0.56560  0.04520  0.04520  Biso   1.000  C
  C19      1.0000 0.04520  0.56560  0.34400  Biso   1.000  C
  C20      1.0000 0.34400  0.04520  0.04520  Biso   1.000  C
  C21      1.0000 0.43440  0.95480  0.95480  Biso   1.000  C
  C22      1.0000 0.95480  0.43440  0.65600  Biso   1.000  C
  C23      1.0000 0.65600  0.95480  0.95480  Biso   1.000  C
  C24      1.0000 0.95480  0.65600  0.43440  Biso   1.000  C
  C25      1.0000 0.95480  0.95480  0.65600  Biso   1.000  C
  C26      1.0000 0.65600  0.43440  0.95480  Biso   1.000  C
  C27      1.0000 0.95480  0.95480  0.43440  Biso   1.000  C
  C28      1.0000 0.43440  0.65600  0.95480  Biso   1.000  C
  C29      1.0000 0.65600  0.95480  0.43440  Biso   1.000  C
  C30      1.0000 0.95480  0.43440  0.95480  Biso   1.000  C
  C31      1.0000 0.43440  0.95480  0.65600  Biso   1.000  C
  C32      1.0000 0.95480  0.65600  0.95480  Biso   1.000  C
  C33      1.0000 0.02683  0.53905  0.02683  Biso   1.000  C
  C34      1.0000 0.53905  0.02683  0.40729  Biso   1.000  C
  C35      1.0000 0.02683  0.40729  0.02683  Biso   1.000  C
  C36      1.0000 0.40729  0.02683  0.53905  Biso   1.000  C
  C37      1.0000 0.02683  0.02683  0.40729  Biso   1.000  C
  C38      1.0000 0.53905  0.40729  0.02683  Biso   1.000  C
  C39      1.0000 0.02683  0.02683  0.53905  Biso   1.000  C
  C40      1.0000 0.40729  0.53905  0.02683  Biso   1.000  C
  C41      1.0000 0.02683  0.40729  0.53905  Biso   1.000  C
  C42      1.0000 0.53905  0.02683  0.02683  Biso   1.000  C
  C43      1.0000 0.02683  0.53905  0.40729  Biso   1.000  C
  C44      1.0000 0.40729  0.02683  0.02683  Biso   1.000  C
  C45      1.0000 0.46095  0.97317  0.97317  Biso   1.000  C
  C46      1.0000 0.97317  0.46095  0.59271  Biso   1.000  C
  C47      1.0000 0.59271  0.97317  0.97317  Biso   1.000  C
  C48      1.0000 0.97317  0.59271  0.46095  Biso   1.000  C
  C49      1.0000 0.97317  0.97317  0.59271  Biso   1.000  C
  C50      1.0000 0.59271  0.46095  0.97317  Biso   1.000  C
  C51      1.0000 0.97317  0.97317  0.46095  Biso   1.000  C
  C52      1.0000 0.46095  0.59271  0.97317  Biso   1.000  C
  C53      1.0000 0.59271  0.97317  0.46095  Biso   1.000  C
  C54      1.0000 0.97317  0.46095  0.97317  Biso   1.000  C
  C55      1.0000 0.46095  0.97317  0.59271  Biso   1.000  C
  C56      1.0000 0.97317  0.59271  0.97317  Biso   1.000  C
  C57      1.0000 0.11144  0.38856  0.11144  Biso   1.000  C
  C58      1.0000 0.05381  0.44619  0.05381  Biso   1.000  C
  C59      1.0000 0.38856  0.11144  0.38856  Biso   1.000  C
  C60      1.0000 0.44619  0.05381  0.44619  Biso   1.000  C
  C61      1.0000 0.11144  0.11144  0.38856  Biso   1.000  C
  C62      1.0000 0.05381  0.05381  0.44619  Biso   1.000  C
  C63      1.0000 0.38856  0.38856  0.11144  Biso   1.000  C
  C64      1.0000 0.44619  0.44619  0.05381  Biso   1.000  C
  C65      1.0000 0.11144  0.38856  0.38856  Biso   1.000  C
  C66      1.0000 0.05381  0.44619  0.44619  Biso   1.000  C
  C67      1.0000 0.38856  0.11144  0.11144  Biso   1.000  C
  C68      1.0000 0.44619  0.05381  0.05381  Biso   1.000  C
  C69      1.0000 0.61144  0.88856  0.88856  Biso   1.000  C
  C70      1.0000 0.55381  0.94619  0.94619  Biso   1.000  C
  C71      1.0000 0.88856  0.61144  0.61144  Biso   1.000  C
  C72      1.0000 0.94619  0.55381  0.55381  Biso   1.000  C
  C73      1.0000 0.88856  0.88856  0.61144  Biso   1.000  C
  C74      1.0000 0.94619  0.94619  0.55381  Biso   1.000  C
  C75      1.0000 0.61144  0.61144  0.88856  Biso   1.000  C
  C76      1.0000 0.55381  0.55381  0.94619  Biso   1.000  C
  C77      1.0000 0.61144  0.88856  0.61144  Biso   1.000  C
  C78      1.0000 0.55381  0.94619  0.55381  Biso   1.000  C
  C79      1.0000 0.88856  0.61144  0.88856  Biso   1.000  C
  C80      1.0000 0.94619  0.55381  0.94619  Biso   1.000  C
  C81      1.0000 0.25000  0.25000  0.25000  Biso   1.000  C
  C82      1.0000 0.75000  0.75000  0.75000  Biso   1.000  C
  C83      1.0000 0.13368  0.42768  0.13368  Biso   1.000  C
  C84      1.0000 0.42768  0.13368  0.30496  Biso   1.000  C
  C85      1.0000 0.13368  0.30496  0.13368  Biso   1.000  C
  C86      1.0000 0.30496  0.13368  0.42768  Biso   1.000  C
  C87      1.0000 0.13368  0.13368  0.30496  Biso   1.000  C
  C88      1.0000 0.42768  0.30496  0.13368  Biso   1.000  C
  C89      1.0000 0.13368  0.13368  0.42768  Biso   1.000  C
  C90      1.0000 0.30496  0.42768  0.13368  Biso   1.000  C
  C91      1.0000 0.13368  0.30496  0.42768  Biso   1.000  C
  C92      1.0000 0.42768  0.13368  0.13368  Biso   1.000  C
  C93      1.0000 0.13368  0.42768  0.30496  Biso   1.000  C
  C94      1.0000 0.30496  0.13368  0.13368  Biso   1.000  C
  C95      1.0000 0.57232  0.86632  0.86632  Biso   1.000  C
  C96      1.0000 0.86632  0.57232  0.69504  Biso   1.000  C
  C97      1.0000 0.69504  0.86632  0.86632  Biso   1.000  C
  C98      1.0000 0.86632  0.69504  0.57232  Biso   1.000  C
  C99      1.0000 0.86632  0.86632  0.69504  Biso   1.000  C
  C100     1.0000 0.69504  0.57232  0.86632  Biso   1.000  C
  C101     1.0000 0.86632  0.86632  0.57232  Biso   1.000  C
  C102     1.0000 0.57232  0.69504  0.86632  Biso   1.000  C
  C103     1.0000 0.69504  0.86632  0.57232  Biso   1.000  C
  C104     1.0000 0.86632  0.57232  0.86632  Biso   1.000  C
  C105     1.0000 0.57232  0.86632  0.69504  Biso   1.000  C
  C106     1.0000 0.86632  0.69504  0.86632  Biso   1.000  C
  O1       1.0000 0.58538  0.24131  0.58793  Biso   1.000  O
  O2       1.0000 0.58538  0.41462  0.58793  Biso   1.000  O
  O3       1.0000 0.41207  0.41462  0.58793  Biso   1.000  O
  O4       1.0000 0.58538  0.41462  0.41462  Biso   1.000  O
  O5       1.0000 0.99490  0.82924  0.00254  Biso   1.000  O
  O6       1.0000 0.99490  0.00254  0.00254  Biso   1.000  O
  O7       1.0000 0.16821  0.82924  0.00254  Biso   1.000  O
  O8       1.0000 0.99490  0.82924  0.17585  Biso   1.000  O
  O9       1.0000 0.44769  0.05670  0.74908  Biso   1.000  O
  O10      1.0000 0.74653  0.57577  0.45024  Biso   1.000  O
  O11      1.0000 0.22745  0.27693  0.74908  Biso   1.000  O
  O12      1.0000 0.74653  0.57577  0.23000  Biso   1.000  O
  O13      1.0000 0.22745  0.57577  0.45024  Biso   1.000  O
  O14      1.0000 0.74653  0.27693  0.74908  Biso   1.000  O
  O15      1.0000 0.44769  0.57577  0.23000  Biso   1.000  O
  O16      1.0000 0.74653  0.05670  0.74908  Biso   1.000  O
  O17      1.0000 0.74653  0.27693  0.23000  Biso   1.000  O
  O18      1.0000 0.44769  0.57577  0.74908  Biso   1.000  O
  O19      1.0000 0.74653  0.05670  0.45024  Biso   1.000  O
  O20      1.0000 0.22745  0.57577  0.74908  Biso   1.000  O
  O21      1.0000 0.13259  0.66809  0.84139  Biso   1.000  O
  O22      1.0000 0.83375  0.18716  0.14023  Biso   1.000  O
  O23      1.0000 0.35283  0.66809  0.84139  Biso   1.000  O
  O24      1.0000 0.83375  0.96692  0.36047  Biso   1.000  O
  O25      1.0000 0.35283  0.66809  0.14023  Biso   1.000  O
  O26      1.0000 0.83375  0.18716  0.84139  Biso   1.000  O
  O27      1.0000 0.13259  0.66809  0.36047  Biso   1.000  O
  O28      1.0000 0.83375  0.96692  0.84139  Biso   1.000  O
  O29      1.0000 0.83375  0.66809  0.36047  Biso   1.000  O
  O30      1.0000 0.13259  0.18716  0.84139  Biso   1.000  O
  O31      1.0000 0.83375  0.66809  0.14023  Biso   1.000  O
  O32      1.0000 0.35283  0.96692  0.84139  Biso   1.000  O
  O33      1.0000 0.38449  0.08339  0.76733  Biso   1.000  O
  O34      1.0000 0.76478  0.59403  0.38704  Biso   1.000  O
  O35      1.0000 0.25414  0.21374  0.76733  Biso   1.000  O
  O36      1.0000 0.76478  0.59403  0.25670  Biso   1.000  O
  O37      1.0000 0.25414  0.59403  0.38704  Biso   1.000  O
  O38      1.0000 0.76478  0.21374  0.76733  Biso   1.000  O
  O39      1.0000 0.38449  0.59403  0.25670  Biso   1.000  O
  O40      1.0000 0.76478  0.08339  0.76733  Biso   1.000  O
  O41      1.0000 0.76478  0.21374  0.25670  Biso   1.000  O
  O42      1.0000 0.38449  0.59403  0.76733  Biso   1.000  O
  O43      1.0000 0.76478  0.08339  0.38704  Biso   1.000  O
  O44      1.0000 0.25414  0.59403  0.76733  Biso   1.000  O
  O45      1.0000 0.19579  0.64983  0.82314  Biso   1.000  O
  O46      1.0000 0.81550  0.16047  0.20343  Biso   1.000  O
  O47      1.0000 0.32614  0.64983  0.82314  Biso   1.000  O
  O48      1.0000 0.81550  0.03012  0.33378  Biso   1.000  O
  O49      1.0000 0.32614  0.64983  0.20343  Biso   1.000  O
  O50      1.0000 0.81550  0.16047  0.82314  Biso   1.000  O
  O51      1.0000 0.19579  0.64983  0.33378  Biso   1.000  O
  O52      1.0000 0.81550  0.03012  0.82314  Biso   1.000  O
  O53      1.0000 0.81550  0.64983  0.33378  Biso   1.000  O
  O54      1.0000 0.19579  0.16047  0.82314  Biso   1.000  O
  O55      1.0000 0.81550  0.64983  0.20343  Biso   1.000  O
  O56      1.0000 0.32614  0.03012  0.82314  Biso   1.000  O
  O57      1.0000 0.40388  0.23313  0.68277  Biso   1.000  O
  O58      1.0000 0.34627  0.17551  0.74038  Biso   1.000  O
  O59      1.0000 0.68022  0.50946  0.40643  Biso   1.000  O
  O60      1.0000 0.73783  0.56707  0.34882  Biso   1.000  O
  O61      1.0000 0.40388  0.50946  0.40643  Biso   1.000  O
  O62      1.0000 0.34627  0.56707  0.34882  Biso   1.000  O
  O63      1.0000 0.68022  0.23313  0.68277  Biso   1.000  O
  O64      1.0000 0.73783  0.17551  0.74038  Biso   1.000  O
  O65      1.0000 0.68022  0.23313  0.40643  Biso   1.000  O
  O66      1.0000 0.73783  0.17551  0.34882  Biso   1.000  O
  O67      1.0000 0.40388  0.50946  0.68277  Biso   1.000  O
  O68      1.0000 0.34627  0.56707  0.74038  Biso   1.000  O
  O69      1.0000 0.17640  0.73440  0.90771  Biso   1.000  O
  O70      1.0000 0.23401  0.67678  0.85009  Biso   1.000  O
  O71      1.0000 0.90006  0.01073  0.18404  Biso   1.000  O
  O72      1.0000 0.84245  0.06835  0.24165  Biso   1.000  O
  O73      1.0000 0.17640  0.73440  0.18404  Biso   1.000  O
  O74      1.0000 0.23401  0.67678  0.24165  Biso   1.000  O
  O75      1.0000 0.90006  0.01073  0.90771  Biso   1.000  O
  O76      1.0000 0.84245  0.06835  0.85009  Biso   1.000  O
  O77      1.0000 0.90006  0.73440  0.18404  Biso   1.000  O
  O78      1.0000 0.84245  0.67678  0.24165  Biso   1.000  O
  O79      1.0000 0.17640  0.01073  0.90771  Biso   1.000  O
  O80      1.0000 0.23401  0.06835  0.85009  Biso   1.000  O
  O81      1.0000 0.54205  0.37129  0.54460  Biso   1.000  O
  O82      1.0000 0.03823  0.87257  0.04587  Biso   1.000  O
  O83      1.0000 0.48716  0.19424  0.66058  Biso   1.000  O
  O84      1.0000 0.65802  0.48727  0.48971  Biso   1.000  O
  O85      1.0000 0.36499  0.31640  0.66058  Biso   1.000  O
  O86      1.0000 0.65802  0.48727  0.36754  Biso   1.000  O
  O87      1.0000 0.36499  0.48727  0.48971  Biso   1.000  O
  O88      1.0000 0.65802  0.31640  0.66058  Biso   1.000  O
  O89      1.0000 0.48716  0.48727  0.36754  Biso   1.000  O
  O90      1.0000 0.65802  0.19424  0.66058  Biso   1.000  O
  O91      1.0000 0.65802  0.31640  0.36754  Biso   1.000  O
  O92      1.0000 0.48716  0.48727  0.66058  Biso   1.000  O
  O93      1.0000 0.65802  0.19424  0.48971  Biso   1.000  O
  O94      1.0000 0.36499  0.48727  0.66058  Biso   1.000  O
  O95      1.0000 0.09312  0.75659  0.92990  Biso   1.000  O
  O96      1.0000 0.92226  0.04962  0.10076  Biso   1.000  O
  O97      1.0000 0.21529  0.75659  0.92990  Biso   1.000  O
  O98      1.0000 0.92226  0.92746  0.22293  Biso   1.000  O
  O99      1.0000 0.21529  0.75659  0.10076  Biso   1.000  O
  O100     1.0000 0.92226  0.04962  0.92990  Biso   1.000  O
  O101     1.0000 0.09312  0.75659  0.22293  Biso   1.000  O
  O102     1.0000 0.92226  0.92746  0.92990  Biso   1.000  O
  O103     1.0000 0.92226  0.75659  0.22293  Biso   1.000  O
  O104     1.0000 0.09312  0.04962  0.92990  Biso   1.000  O
  O105     1.0000 0.92226  0.75659  0.10076  Biso   1.000  O
  O106     1.0000 0.21529  0.92746  0.92990  Biso   1.000  O
