data_image0
_cell_length_a       18.3127
_cell_length_b       18.3127
_cell_length_c       18.3127
_cell_angle_alpha    60
_cell_angle_beta     60
_cell_angle_gamma    60

_symmetry_space_group_name_H-M    "P 1"
_symmetry_int_tables_number       1

loop_
  _symmetry_equiv_pos_as_xyz
  'x, y, z'

loop_
  _atom_site_label
  _atom_site_occupancy
  _atom_site_fract_x
  _atom_site_fract_y
  _atom_site_fract_z
  _atom_site_thermal_displace_type
  _atom_site_B_iso_or_equiv
  _atom_site_type_symbol
  Zn1      1.0000 0.20666  0.38001  0.20666  Biso   1.000  Zn
  Zn2      1.0000 0.38001  0.20666  0.20666  Biso   1.000  Zn
  Zn3      1.0000 0.20667  0.20666  0.20666  Biso   1.000  Zn
  Zn4      1.0000 0.20667  0.20666  0.38001  Biso   1.000  Zn
  Zn5      1.0000 0.61999  0.79334  0.79334  Biso   1.000  Zn
  Zn6      1.0000 0.79334  0.61999  0.79333  Biso   1.000  Zn
  Zn7      1.0000 0.79334  0.79333  0.79334  Biso   1.000  Zn
  Zn8      1.0000 0.79334  0.79333  0.61999  Biso   1.000  Zn
  H1       1.0000 0.04520  0.56580  0.04520  Biso   1.000  H
  H2       1.0000 0.56580  0.04520  0.34380  Biso   1.000  H
  H3       1.0000 0.04520  0.34380  0.04520  Biso   1.000  H
  H4       1.0000 0.34380  0.04520  0.56580  Biso   1.000  H
  H5       1.0000 0.04520  0.04520  0.34380  Biso   1.000  H
  H6       1.0000 0.56580  0.34380  0.04520  Biso   1.000  H
  H7       1.0000 0.04520  0.04520  0.56580  Biso   1.000  H
  H8       1.0000 0.34380  0.56580  0.04520  Biso   1.000  H
  H9       1.0000 0.04520  0.34380  0.56580  Biso   1.000  H
  H10      1.0000 0.56580  0.04520  0.04520  Biso   1.000  H
  H11      1.0000 0.04520  0.56580  0.34380  Biso   1.000  H
  H12      1.0000 0.34380  0.04520  0.04520  Biso   1.000  H
  H13      1.0000 0.43420  0.95480  0.95480  Biso   1.000  H
  H14      1.0000 0.95480  0.43420  0.65620  Biso   1.000  H
  H15      1.0000 0.65620  0.95480  0.95480  Biso   1.000  H
  H16      1.0000 0.95480  0.65620  0.43420  Biso   1.000  H
  H17      1.0000 0.95480  0.95480  0.65620  Biso   1.000  H
  H18      1.0000 0.65620  0.43420  0.95480  Biso   1.000  H
  H19      1.0000 0.95480  0.95480  0.43420  Biso   1.000  H
  H20      1.0000 0.43420  0.65620  0.95480  Biso   1.000  H
  H21      1.0000 0.65620  0.95480  0.43420  Biso   1.000  H
  H22      1.0000 0.95480  0.43420  0.95480  Biso   1.000  H
  H23      1.0000 0.43420  0.95480  0.65620  Biso   1.000  H
  H24      1.0000 0.95480  0.65620  0.95480  Biso   1.000  H
  C1       1.0000 0.02688  0.53930  0.02688  Biso   1.000  C
  C2       1.0000 0.53930  0.02688  0.40694  Biso   1.000  C
  C3       1.0000 0.02688  0.40694  0.02688  Biso   1.000  C
  C4       1.0000 0.40694  0.02688  0.53930  Biso   1.000  C
  C5       1.0000 0.02688  0.02688  0.40694  Biso   1.000  C
  C6       1.0000 0.53930  0.40694  0.02688  Biso   1.000  C
  C7       1.0000 0.02688  0.02688  0.53930  Biso   1.000  C
  C8       1.0000 0.40694  0.53930  0.02688  Biso   1.000  C
  C9       1.0000 0.02688  0.40694  0.53930  Biso   1.000  C
  C10      1.0000 0.53930  0.02688  0.02688  Biso   1.000  C
  C11      1.0000 0.02688  0.53930  0.40694  Biso   1.000  C
  C12      1.0000 0.40694  0.02688  0.02688  Biso   1.000  C
  C13      1.0000 0.46070  0.97312  0.97312  Biso   1.000  C
  C14      1.0000 0.97312  0.46070  0.59306  Biso   1.000  C
  C15      1.0000 0.59306  0.97312  0.97312  Biso   1.000  C
  C16      1.0000 0.97312  0.59306  0.46070  Biso   1.000  C
  C17      1.0000 0.97312  0.97312  0.59306  Biso   1.000  C
  C18      1.0000 0.59306  0.46070  0.97312  Biso   1.000  C
  C19      1.0000 0.97312  0.97312  0.46070  Biso   1.000  C
  C20      1.0000 0.46070  0.59306  0.97312  Biso   1.000  C
  C21      1.0000 0.59306  0.97312  0.46070  Biso   1.000  C
  C22      1.0000 0.97312  0.46070  0.97312  Biso   1.000  C
  C23      1.0000 0.46070  0.97312  0.59306  Biso   1.000  C
  C24      1.0000 0.97312  0.59306  0.97312  Biso   1.000  C
  C25      1.0000 0.11142  0.38858  0.11142  Biso   1.000  C
  C26      1.0000 0.05381  0.44619  0.05381  Biso   1.000  C
  C27      1.0000 0.38858  0.11142  0.38858  Biso   1.000  C
  C28      1.0000 0.44619  0.05381  0.44619  Biso   1.000  C
  C29      1.0000 0.11142  0.11142  0.38858  Biso   1.000  C
  C30      1.0000 0.05381  0.05381  0.44619  Biso   1.000  C
  C31      1.0000 0.38858  0.38858  0.11142  Biso   1.000  C
  C32      1.0000 0.44619  0.44619  0.05381  Biso   1.000  C
  C33      1.0000 0.11142  0.38858  0.38858  Biso   1.000  C
  C34      1.0000 0.05381  0.44619  0.44619  Biso   1.000  C
  C35      1.0000 0.38858  0.11142  0.11142  Biso   1.000  C
  C36      1.0000 0.44619  0.05381  0.05381  Biso   1.000  C
  C37      1.0000 0.61142  0.88858  0.88858  Biso   1.000  C
  C38      1.0000 0.55381  0.94619  0.94619  Biso   1.000  C
  C39      1.0000 0.88858  0.61142  0.61142  Biso   1.000  C
  C40      1.0000 0.94619  0.55381  0.55381  Biso   1.000  C
  C41      1.0000 0.88858  0.88858  0.61142  Biso   1.000  C
  C42      1.0000 0.94619  0.94619  0.55381  Biso   1.000  C
  C43      1.0000 0.61142  0.61142  0.88858  Biso   1.000  C
  C44      1.0000 0.55381  0.55381  0.94619  Biso   1.000  C
  C45      1.0000 0.61142  0.88858  0.61142  Biso   1.000  C
  C46      1.0000 0.55381  0.94619  0.55381  Biso   1.000  C
  C47      1.0000 0.88858  0.61142  0.88858  Biso   1.000  C
  C48      1.0000 0.94619  0.55381  0.94619  Biso   1.000  C
  O1       1.0000 0.25000  0.25000  0.25000  Biso   1.000  O
  O2       1.0000 0.75000  0.75000  0.75000  Biso   1.000  O
  O3       1.0000 0.13369  0.42773  0.13369  Biso   1.000  O
  O4       1.0000 0.42773  0.13369  0.30489  Biso   1.000  O
  O5       1.0000 0.13369  0.30489  0.13369  Biso   1.000  O
  O6       1.0000 0.30489  0.13369  0.42773  Biso   1.000  O
  O7       1.0000 0.13369  0.13369  0.30489  Biso   1.000  O
  O8       1.0000 0.42773  0.30489  0.13369  Biso   1.000  O
  O9       1.0000 0.13369  0.13369  0.42773  Biso   1.000  O
  O10      1.0000 0.30489  0.42773  0.13369  Biso   1.000  O
  O11      1.0000 0.13369  0.30489  0.42773  Biso   1.000  O
  O12      1.0000 0.42773  0.13369  0.13369  Biso   1.000  O
  O13      1.0000 0.13369  0.42773  0.30489  Biso   1.000  O
  O14      1.0000 0.30489  0.13369  0.13369  Biso   1.000  O
  O15      1.0000 0.57227  0.86631  0.86631  Biso   1.000  O
  O16      1.0000 0.86631  0.57227  0.69511  Biso   1.000  O
  O17      1.0000 0.69511  0.86631  0.86631  Biso   1.000  O
  O18      1.0000 0.86631  0.69511  0.57227  Biso   1.000  O
  O19      1.0000 0.86631  0.86631  0.69511  Biso   1.000  O
  O20      1.0000 0.69511  0.57227  0.86631  Biso   1.000  O
  O21      1.0000 0.86631  0.86631  0.57227  Biso   1.000  O
  O22      1.0000 0.57227  0.69511  0.86631  Biso   1.000  O
  O23      1.0000 0.69511  0.86631  0.57227  Biso   1.000  O
  O24      1.0000 0.86631  0.57227  0.86631  Biso   1.000  O
  O25      1.0000 0.57227  0.86631  0.69511  Biso   1.000  O
  O26      1.0000 0.86631  0.69511  0.86631  Biso   1.000  O
  Zn9      1.0000 0.00000  0.00000  0.00000  Biso   1.000  Zn
  Zn10     1.0000 0.00001  0.99999  0.17285  Biso   1.000  Zn
  Zn11     1.0000 0.82716  1.00000  0.17284  Biso   1.000  Zn
  Zn12     1.0000 0.00001  0.82715  0.17285  Biso   1.000  Zn
  Zn13     1.0000 0.40933  0.40931  0.75500  Biso   1.000  Zn
  Zn14     1.0000 0.40932  0.40931  0.58216  Biso   1.000  Zn
  Zn15     1.0000 0.40933  0.58215  0.58216  Biso   1.000  Zn
  Zn16     1.0000 0.58217  0.40931  0.58215  Biso   1.000  Zn
  H25      1.0000 0.16094  0.16092  0.81028  Biso   1.000  H
  H26      1.0000 0.16094  0.16092  0.03217  Biso   1.000  H
  H27      1.0000 0.63744  0.85932  0.33378  Biso   1.000  H
  H28      1.0000 0.85934  0.63742  0.33378  Biso   1.000  H
  H29      1.0000 0.16094  0.63742  0.03217  Biso   1.000  H
  H30      1.0000 0.16094  0.85932  0.81028  Biso   1.000  H
  H31      1.0000 0.63744  0.16092  0.33378  Biso   1.000  H
  H32      1.0000 0.85934  0.16092  0.33378  Biso   1.000  H
  H33      1.0000 0.16094  0.85932  0.33378  Biso   1.000  H
  H34      1.0000 0.16094  0.63742  0.33378  Biso   1.000  H
  H35      1.0000 0.63744  0.16092  0.03217  Biso   1.000  H
  H36      1.0000 0.85934  0.16092  0.81028  Biso   1.000  H
  H37      1.0000 0.24839  0.24837  0.94473  Biso   1.000  H
  H38      1.0000 0.24839  0.24837  0.72283  Biso   1.000  H
  H39      1.0000 0.55000  0.77187  0.42122  Biso   1.000  H
  H40      1.0000 0.77189  0.54998  0.42122  Biso   1.000  H
  H41      1.0000 0.77189  0.24837  0.72283  Biso   1.000  H
  H42      1.0000 0.55000  0.24837  0.94473  Biso   1.000  H
  H43      1.0000 0.24839  0.77187  0.42122  Biso   1.000  H
  H44      1.0000 0.24839  0.54998  0.42122  Biso   1.000  H
  H45      1.0000 0.55000  0.24837  0.42122  Biso   1.000  H
  H46      1.0000 0.77189  0.24837  0.42122  Biso   1.000  H
  H47      1.0000 0.24839  0.77187  0.72283  Biso   1.000  H
  H48      1.0000 0.24839  0.54998  0.94473  Biso   1.000  H
  C49      1.0000 0.17849  0.17847  0.83681  Biso   1.000  C
  C50      1.0000 0.17849  0.17847  0.97054  Biso   1.000  C
  C51      1.0000 0.66398  0.79769  0.35133  Biso   1.000  C
  C52      1.0000 0.79771  0.66396  0.35133  Biso   1.000  C
  C53      1.0000 0.17849  0.66396  0.97054  Biso   1.000  C
  C54      1.0000 0.17849  0.79769  0.83681  Biso   1.000  C
  C55      1.0000 0.66398  0.17847  0.35133  Biso   1.000  C
  C56      1.0000 0.79771  0.17847  0.35133  Biso   1.000  C
  C57      1.0000 0.17849  0.79769  0.35133  Biso   1.000  C
  C58      1.0000 0.17849  0.66396  0.35133  Biso   1.000  C
  C59      1.0000 0.66398  0.17847  0.97054  Biso   1.000  C
  C60      1.0000 0.79771  0.17847  0.83681  Biso   1.000  C
  C61      1.0000 0.23084  0.23082  0.91819  Biso   1.000  C
  C62      1.0000 0.23084  0.23082  0.78446  Biso   1.000  C
  C63      1.0000 0.61163  0.74534  0.40368  Biso   1.000  C
  C64      1.0000 0.74536  0.61161  0.40368  Biso   1.000  C
  C65      1.0000 0.74536  0.23082  0.78446  Biso   1.000  C
  C66      1.0000 0.61163  0.23082  0.91819  Biso   1.000  C
  C67      1.0000 0.23084  0.74534  0.40368  Biso   1.000  C
  C68      1.0000 0.23084  0.61161  0.40368  Biso   1.000  C
  C69      1.0000 0.61163  0.23082  0.40368  Biso   1.000  C
  C70      1.0000 0.74536  0.23082  0.40368  Biso   1.000  C
  C71      1.0000 0.23084  0.74534  0.78446  Biso   1.000  C
  C72      1.0000 0.23084  0.61161  0.91819  Biso   1.000  C
  C73      1.0000 0.09422  0.09420  0.99222  Biso   1.000  C
  C74      1.0000 0.15153  0.15151  0.93491  Biso   1.000  C
  C75      1.0000 0.81938  0.81936  0.26705  Biso   1.000  C
  C76      1.0000 0.76208  0.76206  0.32436  Biso   1.000  C
  C77      1.0000 0.09422  0.81936  0.99222  Biso   1.000  C
  C78      1.0000 0.15153  0.76206  0.93491  Biso   1.000  C
  C79      1.0000 0.81938  0.09420  0.26705  Biso   1.000  C
  C80      1.0000 0.76208  0.15151  0.32436  Biso   1.000  C
  C81      1.0000 0.09422  0.81936  0.26705  Biso   1.000  C
  C82      1.0000 0.15153  0.76206  0.32436  Biso   1.000  C
  C83      1.0000 0.81938  0.09420  0.99222  Biso   1.000  C
  C84      1.0000 0.76208  0.15151  0.93491  Biso   1.000  C
  C85      1.0000 0.31512  0.31510  0.76279  Biso   1.000  C
  C86      1.0000 0.25781  0.25779  0.82009  Biso   1.000  C
  C87      1.0000 0.58995  0.58993  0.48795  Biso   1.000  C
  C88      1.0000 0.64726  0.64724  0.43064  Biso   1.000  C
  C89      1.0000 0.58995  0.31510  0.76279  Biso   1.000  C
  C90      1.0000 0.64726  0.25779  0.82009  Biso   1.000  C
  C91      1.0000 0.31512  0.58993  0.48795  Biso   1.000  C
  C92      1.0000 0.25781  0.64724  0.43064  Biso   1.000  C
  C93      1.0000 0.58995  0.31510  0.48795  Biso   1.000  C
  C94      1.0000 0.64726  0.25779  0.43064  Biso   1.000  C
  C95      1.0000 0.31512  0.58993  0.76279  Biso   1.000  C
  C96      1.0000 0.25781  0.64724  0.82009  Biso   1.000  C
  O27      1.0000 0.95680  0.95678  0.12963  Biso   1.000  O
  O28      1.0000 0.45254  0.45252  0.62537  Biso   1.000  O
  O29      1.0000 0.07185  0.07183  0.95454  Biso   1.000  O
  O30      1.0000 0.07185  0.07183  0.07463  Biso   1.000  O
  O31      1.0000 0.78171  0.90178  0.24468  Biso   1.000  O
  O32      1.0000 0.90180  0.78169  0.24468  Biso   1.000  O
  O33      1.0000 0.07185  0.78169  0.07463  Biso   1.000  O
  O34      1.0000 0.07185  0.90178  0.95454  Biso   1.000  O
  O35      1.0000 0.78171  0.07183  0.24468  Biso   1.000  O
  O36      1.0000 0.90180  0.07183  0.24468  Biso   1.000  O
  O37      1.0000 0.07185  0.90178  0.24468  Biso   1.000  O
  O38      1.0000 0.07185  0.78169  0.24468  Biso   1.000  O
  O39      1.0000 0.78171  0.07183  0.07463  Biso   1.000  O
  O40      1.0000 0.90180  0.07183  0.95454  Biso   1.000  O
  O41      1.0000 0.33749  0.33747  0.80046  Biso   1.000  O
  O42      1.0000 0.33749  0.33747  0.68037  Biso   1.000  O
  O43      1.0000 0.50754  0.62761  0.51032  Biso   1.000  O
  O44      1.0000 0.62763  0.50752  0.51032  Biso   1.000  O
  O45      1.0000 0.62763  0.33747  0.68037  Biso   1.000  O
  O46      1.0000 0.50754  0.33747  0.80046  Biso   1.000  O
  O47      1.0000 0.33749  0.62761  0.51032  Biso   1.000  O
  O48      1.0000 0.33749  0.50752  0.51032  Biso   1.000  O
  O49      1.0000 0.50754  0.33747  0.51032  Biso   1.000  O
  O50      1.0000 0.62763  0.33747  0.51032  Biso   1.000  O
  O51      1.0000 0.33749  0.62761  0.68037  Biso   1.000  O
  O52      1.0000 0.33749  0.50752  0.80046  Biso   1.000  O
