data_image0
_cell_length_a       18.2943
_cell_length_b       18.2943
_cell_length_c       18.2943
_cell_angle_alpha    60
_cell_angle_beta     60
_cell_angle_gamma    60

_symmetry_space_group_name_H-M    "P 1"
_symmetry_int_tables_number       1

loop_
  _symmetry_equiv_pos_as_xyz
  'x, y, z'

loop_
  _atom_site_label
  _atom_site_occupancy
  _atom_site_fract_x
  _atom_site_fract_y
  _atom_site_fract_z
  _atom_site_thermal_displace_type
  _atom_site_B_iso_or_equiv
  _atom_site_type_symbol
  Zn1      1.0000 0.20660  0.38020  0.20660  Biso   1.000  Zn
  Zn2      1.0000 0.38020  0.20660  0.20660  Biso   1.000  Zn
  Zn3      1.0000 0.20660  0.20660  0.20660  Biso   1.000  Zn
  Zn4      1.0000 0.20660  0.20660  0.38020  Biso   1.000  Zn
  Zn5      1.0000 0.61980  0.79340  0.79340  Biso   1.000  Zn
  Zn6      1.0000 0.79340  0.61980  0.79340  Biso   1.000  Zn
  Zn7      1.0000 0.79340  0.79340  0.79340  Biso   1.000  Zn
  Zn8      1.0000 0.79340  0.79340  0.61980  Biso   1.000  Zn
  H1       1.0000 0.04510  0.56550  0.04510  Biso   1.000  H
  H2       1.0000 0.56550  0.04510  0.34430  Biso   1.000  H
  H3       1.0000 0.04510  0.34430  0.04510  Biso   1.000  H
  H4       1.0000 0.34430  0.04510  0.56550  Biso   1.000  H
  H5       1.0000 0.04510  0.04510  0.34430  Biso   1.000  H
  H6       1.0000 0.56550  0.34430  0.04510  Biso   1.000  H
  H7       1.0000 0.04510  0.04510  0.56550  Biso   1.000  H
  H8       1.0000 0.34430  0.56550  0.04510  Biso   1.000  H
  H9       1.0000 0.04510  0.34430  0.56550  Biso   1.000  H
  H10      1.0000 0.56550  0.04510  0.04510  Biso   1.000  H
  H11      1.0000 0.04510  0.56550  0.34430  Biso   1.000  H
  H12      1.0000 0.34430  0.04510  0.04510  Biso   1.000  H
  H13      1.0000 0.43450  0.95490  0.95490  Biso   1.000  H
  H14      1.0000 0.95490  0.43450  0.65570  Biso   1.000  H
  H15      1.0000 0.65570  0.95490  0.95490  Biso   1.000  H
  H16      1.0000 0.95490  0.65570  0.43450  Biso   1.000  H
  H17      1.0000 0.95490  0.95490  0.65570  Biso   1.000  H
  H18      1.0000 0.65570  0.43450  0.95490  Biso   1.000  H
  H19      1.0000 0.95490  0.95490  0.43450  Biso   1.000  H
  H20      1.0000 0.43450  0.65570  0.95490  Biso   1.000  H
  H21      1.0000 0.65570  0.95490  0.43450  Biso   1.000  H
  H22      1.0000 0.95490  0.43450  0.95490  Biso   1.000  H
  H23      1.0000 0.43450  0.95490  0.65570  Biso   1.000  H
  H24      1.0000 0.95490  0.65570  0.95490  Biso   1.000  H
  C1       1.0000 0.02675  0.53889  0.02675  Biso   1.000  C
  C2       1.0000 0.53889  0.02675  0.40761  Biso   1.000  C
  C3       1.0000 0.02675  0.40761  0.02675  Biso   1.000  C
  C4       1.0000 0.40761  0.02675  0.53889  Biso   1.000  C
  C5       1.0000 0.02675  0.02675  0.40761  Biso   1.000  C
  C6       1.0000 0.53889  0.40761  0.02675  Biso   1.000  C
  C7       1.0000 0.02675  0.02675  0.53889  Biso   1.000  C
  C8       1.0000 0.40761  0.53889  0.02675  Biso   1.000  C
  C9       1.0000 0.02675  0.40761  0.53889  Biso   1.000  C
  C10      1.0000 0.53889  0.02675  0.02675  Biso   1.000  C
  C11      1.0000 0.02675  0.53889  0.40761  Biso   1.000  C
  C12      1.0000 0.40761  0.02675  0.02675  Biso   1.000  C
  C13      1.0000 0.46111  0.97325  0.97325  Biso   1.000  C
  C14      1.0000 0.97325  0.46111  0.59239  Biso   1.000  C
  C15      1.0000 0.59239  0.97325  0.97325  Biso   1.000  C
  C16      1.0000 0.97325  0.59239  0.46111  Biso   1.000  C
  C17      1.0000 0.97325  0.97325  0.59239  Biso   1.000  C
  C18      1.0000 0.59239  0.46111  0.97325  Biso   1.000  C
  C19      1.0000 0.97325  0.97325  0.46111  Biso   1.000  C
  C20      1.0000 0.46111  0.59239  0.97325  Biso   1.000  C
  C21      1.0000 0.59239  0.97325  0.46111  Biso   1.000  C
  C22      1.0000 0.97325  0.46111  0.97325  Biso   1.000  C
  C23      1.0000 0.46111  0.97325  0.59239  Biso   1.000  C
  C24      1.0000 0.97325  0.59239  0.97325  Biso   1.000  C
  C25      1.0000 0.11147  0.38853  0.11147  Biso   1.000  C
  C26      1.0000 0.05374  0.44626  0.05374  Biso   1.000  C
  C27      1.0000 0.38853  0.11147  0.38853  Biso   1.000  C
  C28      1.0000 0.44626  0.05374  0.44626  Biso   1.000  C
  C29      1.0000 0.11147  0.11147  0.38853  Biso   1.000  C
  C30      1.0000 0.05374  0.05374  0.44626  Biso   1.000  C
  C31      1.0000 0.38853  0.38853  0.11147  Biso   1.000  C
  C32      1.0000 0.44626  0.44626  0.05374  Biso   1.000  C
  C33      1.0000 0.11147  0.38853  0.38853  Biso   1.000  C
  C34      1.0000 0.05374  0.44626  0.44626  Biso   1.000  C
  C35      1.0000 0.38853  0.11147  0.11147  Biso   1.000  C
  C36      1.0000 0.44626  0.05374  0.05374  Biso   1.000  C
  C37      1.0000 0.61147  0.88853  0.88853  Biso   1.000  C
  C38      1.0000 0.55374  0.94626  0.94626  Biso   1.000  C
  C39      1.0000 0.88853  0.61147  0.61147  Biso   1.000  C
  C40      1.0000 0.94626  0.55374  0.55374  Biso   1.000  C
  C41      1.0000 0.88853  0.88853  0.61147  Biso   1.000  C
  C42      1.0000 0.94626  0.94626  0.55374  Biso   1.000  C
  C43      1.0000 0.61147  0.61147  0.88853  Biso   1.000  C
  C44      1.0000 0.55374  0.55374  0.94626  Biso   1.000  C
  C45      1.0000 0.61147  0.88853  0.61147  Biso   1.000  C
  C46      1.0000 0.55374  0.94626  0.55374  Biso   1.000  C
  C47      1.0000 0.88853  0.61147  0.88853  Biso   1.000  C
  C48      1.0000 0.94626  0.55374  0.94626  Biso   1.000  C
  O1       1.0000 0.25000  0.25000  0.25000  Biso   1.000  O
  O2       1.0000 0.75000  0.75000  0.75000  Biso   1.000  O
  O3       1.0000 0.13372  0.42764  0.13372  Biso   1.000  O
  O4       1.0000 0.42764  0.13372  0.30492  Biso   1.000  O
  O5       1.0000 0.13372  0.30492  0.13372  Biso   1.000  O
  O6       1.0000 0.30492  0.13372  0.42764  Biso   1.000  O
  O7       1.0000 0.13372  0.13372  0.30492  Biso   1.000  O
  O8       1.0000 0.42764  0.30492  0.13372  Biso   1.000  O
  O9       1.0000 0.13372  0.13372  0.42764  Biso   1.000  O
  O10      1.0000 0.30492  0.42764  0.13372  Biso   1.000  O
  O11      1.0000 0.13372  0.30492  0.42764  Biso   1.000  O
  O12      1.0000 0.42764  0.13372  0.13372  Biso   1.000  O
  O13      1.0000 0.13372  0.42764  0.30492  Biso   1.000  O
  O14      1.0000 0.30492  0.13372  0.13372  Biso   1.000  O
  O15      1.0000 0.57236  0.86628  0.86628  Biso   1.000  O
  O16      1.0000 0.86628  0.57236  0.69508  Biso   1.000  O
  O17      1.0000 0.69508  0.86628  0.86628  Biso   1.000  O
  O18      1.0000 0.86628  0.69508  0.57236  Biso   1.000  O
  O19      1.0000 0.86628  0.86628  0.69508  Biso   1.000  O
  O20      1.0000 0.69508  0.57236  0.86628  Biso   1.000  O
  O21      1.0000 0.86628  0.86628  0.57236  Biso   1.000  O
  O22      1.0000 0.57236  0.69508  0.86628  Biso   1.000  O
  O23      1.0000 0.69508  0.86628  0.57236  Biso   1.000  O
  O24      1.0000 0.86628  0.57236  0.86628  Biso   1.000  O
  O25      1.0000 0.57236  0.86628  0.69508  Biso   1.000  O
  O26      1.0000 0.86628  0.69508  0.86628  Biso   1.000  O
  Zn9      1.0000 0.90835  0.59384  0.58938  Biso   1.000  Zn
  Zn10     1.0000 0.32328  0.17879  0.00451  Biso   1.000  Zn
  Zn11     1.0000 0.32328  0.00472  0.00451  Biso   1.000  Zn
  Zn12     1.0000 0.90835  0.41978  0.58938  Biso   1.000  Zn
  Zn13     1.0000 0.90789  0.59418  0.41508  Biso   1.000  Zn
  Zn14     1.0000 0.73389  0.59399  0.58948  Biso   1.000  Zn
  Zn15     1.0000 0.32374  0.00439  0.17881  Biso   1.000  Zn
  Zn16     1.0000 0.49774  0.00457  0.00441  Biso   1.000  Zn
  H25      1.0000 0.07538  0.23632  0.44647  Biso   1.000  H
  H26      1.0000 0.06439  0.45480  0.23572  Biso   1.000  H
  H27      1.0000 0.77292  0.23740  0.74880  Biso   1.000  H
  H28      1.0000 0.55174  0.45229  0.75109  Biso   1.000  H
  H29      1.0000 0.07618  0.45428  0.74631  Biso   1.000  H
  H30      1.0000 0.15626  0.84537  0.14742  Biso   1.000  H
  H31      1.0000 0.16724  0.84218  0.35817  Biso   1.000  H
  H32      1.0000 0.45872  0.84629  0.84509  Biso   1.000  H
  H33      1.0000 0.67989  0.84230  0.84280  Biso   1.000  H
  H34      1.0000 0.15544  0.36395  0.84758  Biso   1.000  H
  H35      1.0000 0.15626  0.36224  0.14742  Biso   1.000  H
  H36      1.0000 0.16724  0.14376  0.35817  Biso   1.000  H
  H37      1.0000 0.45871  0.36116  0.84509  Biso   1.000  H
  H38      1.0000 0.67989  0.14628  0.84280  Biso   1.000  H
  H39      1.0000 0.15545  0.14429  0.84758  Biso   1.000  H
  H40      1.0000 0.07537  0.75319  0.44647  Biso   1.000  H
  H41      1.0000 0.06440  0.75639  0.23572  Biso   1.000  H
  H42      1.0000 0.77292  0.75228  0.74880  Biso   1.000  H
  H43      1.0000 0.55174  0.75626  0.75109  Biso   1.000  H
  H44      1.0000 0.07619  0.23462  0.74631  Biso   1.000  H
  H45      1.0000 0.55262  0.75508  0.44856  Biso   1.000  H
  H46      1.0000 0.76551  0.75619  0.23343  Biso   1.000  H
  H47      1.0000 0.67901  0.84348  0.14533  Biso   1.000  H
  H48      1.0000 0.46613  0.84238  0.36046  Biso   1.000  H
  C49      1.0000 0.00220  0.41130  0.41023  Biso   1.000  C
  C50      1.0000 0.06151  0.35347  0.34931  Biso   1.000  C
  C51      1.0000 0.09309  0.26191  0.38455  Biso   1.000  C
  C52      1.0000 0.08370  0.39299  0.26161  Biso   1.000  C
  C53      1.0000 0.72442  0.41447  0.68608  Biso   1.000  C
  C54      1.0000 0.67058  0.35624  0.74113  Biso   1.000  C
  C55      1.0000 0.71101  0.26348  0.76672  Biso   1.000  C
  C56      1.0000 0.57931  0.39058  0.76851  Biso   1.000  C
  C57      1.0000 0.09201  0.39247  0.76632  Biso   1.000  C
  C58      1.0000 0.22943  0.91096  0.18366  Biso   1.000  C
  C59      1.0000 0.17012  0.85154  0.24458  Biso   1.000  C
  C60      1.0000 0.13854  0.82676  0.20934  Biso   1.000  C
  C61      1.0000 0.14793  0.82556  0.33229  Biso   1.000  C
  C62      1.0000 0.50721  0.91217  0.90781  Biso   1.000  C
  C63      1.0000 0.56105  0.85514  0.85276  Biso   1.000  C
  C64      1.0000 0.52062  0.82837  0.82717  Biso   1.000  C
  C65      1.0000 0.65232  0.82558  0.82538  Biso   1.000  C
  C66      1.0000 0.13962  0.33797  0.82757  Biso   1.000  C
  C67      1.0000 0.22944  0.18727  0.18366  Biso   1.000  C
  C68      1.0000 0.17012  0.24509  0.24458  Biso   1.000  C
  C69      1.0000 0.13854  0.33666  0.20934  Biso   1.000  C
  C70      1.0000 0.14793  0.20557  0.33229  Biso   1.000  C
  C71      1.0000 0.50721  0.18410  0.90781  Biso   1.000  C
  C72      1.0000 0.56105  0.24233  0.85276  Biso   1.000  C
  C73      1.0000 0.52062  0.33509  0.82717  Biso   1.000  C
  C74      1.0000 0.65232  0.20799  0.82538  Biso   1.000  C
  C75      1.0000 0.13962  0.20610  0.82757  Biso   1.000  C
  C76      1.0000 0.00220  0.68760  0.41023  Biso   1.000  C
  C77      1.0000 0.06151  0.74703  0.34931  Biso   1.000  C
  C78      1.0000 0.09309  0.77181  0.38455  Biso   1.000  C
  C79      1.0000 0.08371  0.77301  0.26161  Biso   1.000  C
  C80      1.0000 0.72442  0.68639  0.68608  Biso   1.000  C
  C81      1.0000 0.67058  0.74342  0.74113  Biso   1.000  C
  C82      1.0000 0.71101  0.77019  0.76672  Biso   1.000  C
  C83      1.0000 0.57931  0.77298  0.76851  Biso   1.000  C
  C84      1.0000 0.09201  0.26059  0.76632  Biso   1.000  C
  C85      1.0000 0.73108  0.68840  0.40346  Biso   1.000  C
  C86      1.0000 0.66917  0.74533  0.35150  Biso   1.000  C
  C87      1.0000 0.57969  0.77240  0.38684  Biso   1.000  C
  C88      1.0000 0.70370  0.77361  0.26041  Biso   1.000  C
  C89      1.0000 0.00072  0.41626  0.67812  Biso   1.000  C
  C90      1.0000 0.06044  0.35485  0.74123  Biso   1.000  C
  C91      1.0000 0.50056  0.91017  0.19043  Biso   1.000  C
  C92      1.0000 0.56247  0.85323  0.24239  Biso   1.000  C
  C93      1.0000 0.65194  0.82616  0.20705  Biso   1.000  C
  C94      1.0000 0.52793  0.82496  0.33348  Biso   1.000  C
  C95      1.0000 0.23092  0.18230  0.91577  Biso   1.000  C
  C96      1.0000 0.17119  0.24372  0.85266  Biso   1.000  C
  O27      1.0000 0.98219  0.49630  0.36454  Biso   1.000  O
  O28      1.0000 0.98349  0.36760  0.49405  Biso   1.000  O
  O29      1.0000 0.68471  0.49728  0.65970  Biso   1.000  O
  O30      1.0000 0.81031  0.37058  0.66368  Biso   1.000  O
  O31      1.0000 0.98171  0.49828  0.66090  Biso   1.000  O
  O32      1.0000 0.24944  0.93027  0.22935  Biso   1.000  O
  O33      1.0000 0.24814  0.93237  0.09984  Biso   1.000  O
  O34      1.0000 0.54692  0.92889  0.93419  Biso   1.000  O
  O35      1.0000 0.42132  0.93178  0.93021  Biso   1.000  O
  O36      1.0000 0.24993  0.22809  0.93299  Biso   1.000  O
  O37      1.0000 0.24944  0.10226  0.22935  Biso   1.000  O
  O38      1.0000 0.24814  0.23097  0.09984  Biso   1.000  O
  O39      1.0000 0.54692  0.10128  0.93419  Biso   1.000  O
  O40      1.0000 0.42132  0.22799  0.93021  Biso   1.000  O
  O41      1.0000 0.24993  0.10029  0.93299  Biso   1.000  O
  O42      1.0000 0.98219  0.66829  0.36454  Biso   1.000  O
  O43      1.0000 0.98349  0.66620  0.49405  Biso   1.000  O
  O44      1.0000 0.68471  0.66967  0.65970  Biso   1.000  O
  O45      1.0000 0.81032  0.66679  0.66368  Biso   1.000  O
  O46      1.0000 0.98170  0.37048  0.66090  Biso   1.000  O
  O47      1.0000 0.86535  0.55024  0.54552  Biso   1.000  O
  O48      1.0000 0.81150  0.66730  0.36524  Biso   1.000  O
  O49      1.0000 0.68609  0.66958  0.48609  Biso   1.000  O
  O50      1.0000 0.36628  0.04833  0.04837  Biso   1.000  O
  O51      1.0000 0.42014  0.93127  0.22865  Biso   1.000  O
  O52      1.0000 0.54554  0.92898  0.10780  Biso   1.000  O
