data_image0
_cell_length_a       18.283
_cell_length_b       18.283
_cell_length_c       18.283
_cell_angle_alpha    60
_cell_angle_beta     60
_cell_angle_gamma    60

_symmetry_space_group_name_H-M    "P 1"
_symmetry_int_tables_number       1

loop_
  _symmetry_equiv_pos_as_xyz
  'x, y, z'

loop_
  _atom_site_label
  _atom_site_occupancy
  _atom_site_fract_x
  _atom_site_fract_y
  _atom_site_fract_z
  _atom_site_thermal_displace_type
  _atom_site_B_iso_or_equiv
  _atom_site_type_symbol
  Zn1      1.0000 0.20657  0.38031  0.20656  Biso   1.000  Zn
  Zn2      1.0000 0.38032  0.20656  0.20656  Biso   1.000  Zn
  Zn3      1.0000 0.20657  0.20656  0.20656  Biso   1.000  Zn
  Zn4      1.0000 0.20657  0.20656  0.38031  Biso   1.000  Zn
  Zn5      1.0000 0.61968  0.79344  0.79344  Biso   1.000  Zn
  Zn6      1.0000 0.79343  0.61969  0.79344  Biso   1.000  Zn
  Zn7      1.0000 0.79343  0.79344  0.79344  Biso   1.000  Zn
  Zn8      1.0000 0.79343  0.79344  0.61969  Biso   1.000  Zn
  H1       1.0000 0.04500  0.56540  0.04500  Biso   1.000  H
  H2       1.0000 0.56540  0.04500  0.34460  Biso   1.000  H
  H3       1.0000 0.04500  0.34460  0.04500  Biso   1.000  H
  H4       1.0000 0.34460  0.04500  0.56540  Biso   1.000  H
  H5       1.0000 0.04500  0.04500  0.34460  Biso   1.000  H
  H6       1.0000 0.56540  0.34460  0.04500  Biso   1.000  H
  H7       1.0000 0.04500  0.04500  0.56540  Biso   1.000  H
  H8       1.0000 0.34460  0.56540  0.04500  Biso   1.000  H
  H9       1.0000 0.04500  0.34460  0.56540  Biso   1.000  H
  H10      1.0000 0.56540  0.04500  0.04500  Biso   1.000  H
  H11      1.0000 0.04500  0.56540  0.34460  Biso   1.000  H
  H12      1.0000 0.34460  0.04500  0.04500  Biso   1.000  H
  H13      1.0000 0.43460  0.95500  0.95500  Biso   1.000  H
  H14      1.0000 0.95500  0.43460  0.65540  Biso   1.000  H
  H15      1.0000 0.65540  0.95500  0.95500  Biso   1.000  H
  H16      1.0000 0.95500  0.65540  0.43460  Biso   1.000  H
  H17      1.0000 0.95500  0.95500  0.65540  Biso   1.000  H
  H18      1.0000 0.65540  0.43460  0.95500  Biso   1.000  H
  H19      1.0000 0.95500  0.95500  0.43460  Biso   1.000  H
  H20      1.0000 0.43460  0.65540  0.95500  Biso   1.000  H
  H21      1.0000 0.65540  0.95500  0.43460  Biso   1.000  H
  H22      1.0000 0.95500  0.43460  0.95500  Biso   1.000  H
  H23      1.0000 0.43460  0.95500  0.65540  Biso   1.000  H
  H24      1.0000 0.95500  0.65540  0.95500  Biso   1.000  H
  C1       1.0000 0.02670  0.53864  0.02670  Biso   1.000  C
  C2       1.0000 0.53864  0.02670  0.40796  Biso   1.000  C
  C3       1.0000 0.02670  0.40796  0.02670  Biso   1.000  C
  C4       1.0000 0.40796  0.02670  0.53864  Biso   1.000  C
  C5       1.0000 0.02670  0.02670  0.40796  Biso   1.000  C
  C6       1.0000 0.53864  0.40796  0.02670  Biso   1.000  C
  C7       1.0000 0.02670  0.02670  0.53864  Biso   1.000  C
  C8       1.0000 0.40796  0.53864  0.02670  Biso   1.000  C
  C9       1.0000 0.02670  0.40796  0.53864  Biso   1.000  C
  C10      1.0000 0.53864  0.02670  0.02670  Biso   1.000  C
  C11      1.0000 0.02670  0.53864  0.40796  Biso   1.000  C
  C12      1.0000 0.40796  0.02670  0.02670  Biso   1.000  C
  C13      1.0000 0.46136  0.97330  0.97330  Biso   1.000  C
  C14      1.0000 0.97330  0.46136  0.59204  Biso   1.000  C
  C15      1.0000 0.59204  0.97330  0.97330  Biso   1.000  C
  C16      1.0000 0.97330  0.59204  0.46136  Biso   1.000  C
  C17      1.0000 0.97330  0.97330  0.59204  Biso   1.000  C
  C18      1.0000 0.59204  0.46136  0.97330  Biso   1.000  C
  C19      1.0000 0.97330  0.97330  0.46136  Biso   1.000  C
  C20      1.0000 0.46136  0.59204  0.97330  Biso   1.000  C
  C21      1.0000 0.59204  0.97330  0.46136  Biso   1.000  C
  C22      1.0000 0.97330  0.46136  0.97330  Biso   1.000  C
  C23      1.0000 0.46136  0.97330  0.59204  Biso   1.000  C
  C24      1.0000 0.97330  0.59204  0.97330  Biso   1.000  C
  C25      1.0000 0.11148  0.38852  0.11148  Biso   1.000  C
  C26      1.0000 0.05372  0.44628  0.05372  Biso   1.000  C
  C27      1.0000 0.38852  0.11148  0.38852  Biso   1.000  C
  C28      1.0000 0.44628  0.05372  0.44628  Biso   1.000  C
  C29      1.0000 0.11148  0.11148  0.38852  Biso   1.000  C
  C30      1.0000 0.05372  0.05372  0.44628  Biso   1.000  C
  C31      1.0000 0.38852  0.38852  0.11148  Biso   1.000  C
  C32      1.0000 0.44628  0.44628  0.05372  Biso   1.000  C
  C33      1.0000 0.11148  0.38852  0.38852  Biso   1.000  C
  C34      1.0000 0.05372  0.44628  0.44628  Biso   1.000  C
  C35      1.0000 0.38852  0.11148  0.11148  Biso   1.000  C
  C36      1.0000 0.44628  0.05372  0.05372  Biso   1.000  C
  C37      1.0000 0.61148  0.88852  0.88852  Biso   1.000  C
  C38      1.0000 0.55372  0.94628  0.94628  Biso   1.000  C
  C39      1.0000 0.88852  0.61148  0.61148  Biso   1.000  C
  C40      1.0000 0.94628  0.55372  0.55372  Biso   1.000  C
  C41      1.0000 0.88852  0.88852  0.61148  Biso   1.000  C
  C42      1.0000 0.94628  0.94628  0.55372  Biso   1.000  C
  C43      1.0000 0.61148  0.61148  0.88852  Biso   1.000  C
  C44      1.0000 0.55372  0.55372  0.94628  Biso   1.000  C
  C45      1.0000 0.61148  0.88852  0.61148  Biso   1.000  C
  C46      1.0000 0.55372  0.94628  0.55372  Biso   1.000  C
  C47      1.0000 0.88852  0.61148  0.88852  Biso   1.000  C
  C48      1.0000 0.94628  0.55372  0.94628  Biso   1.000  C
  O1       1.0000 0.25000  0.25000  0.25000  Biso   1.000  O
  O2       1.0000 0.75000  0.75000  0.75000  Biso   1.000  O
  O3       1.0000 0.13373  0.42751  0.13373  Biso   1.000  O
  O4       1.0000 0.42751  0.13373  0.30503  Biso   1.000  O
  O5       1.0000 0.13373  0.30503  0.13373  Biso   1.000  O
  O6       1.0000 0.30503  0.13373  0.42751  Biso   1.000  O
  O7       1.0000 0.13373  0.13373  0.30503  Biso   1.000  O
  O8       1.0000 0.42751  0.30503  0.13373  Biso   1.000  O
  O9       1.0000 0.13373  0.13373  0.42751  Biso   1.000  O
  O10      1.0000 0.30503  0.42751  0.13373  Biso   1.000  O
  O11      1.0000 0.13373  0.30503  0.42751  Biso   1.000  O
  O12      1.0000 0.42751  0.13373  0.13373  Biso   1.000  O
  O13      1.0000 0.13373  0.42751  0.30503  Biso   1.000  O
  O14      1.0000 0.30503  0.13373  0.13373  Biso   1.000  O
  O15      1.0000 0.57249  0.86627  0.86627  Biso   1.000  O
  O16      1.0000 0.86627  0.57249  0.69497  Biso   1.000  O
  O17      1.0000 0.69497  0.86627  0.86627  Biso   1.000  O
  O18      1.0000 0.86627  0.69497  0.57249  Biso   1.000  O
  O19      1.0000 0.86627  0.86627  0.69497  Biso   1.000  O
  O20      1.0000 0.69497  0.57249  0.86627  Biso   1.000  O
  O21      1.0000 0.86627  0.86627  0.57249  Biso   1.000  O
  O22      1.0000 0.57249  0.69497  0.86627  Biso   1.000  O
  O23      1.0000 0.69497  0.86627  0.57249  Biso   1.000  O
  O24      1.0000 0.86627  0.57249  0.86627  Biso   1.000  O
  O25      1.0000 0.57249  0.86627  0.69497  Biso   1.000  O
  O26      1.0000 0.86627  0.69497  0.86627  Biso   1.000  O
  Zn9      1.0000 1.00000  1.00000  0.00000  Biso   1.000  Zn
  Zn10     1.0000 0.00000  1.00000  0.17390  Biso   1.000  Zn
  Zn11     1.0000 0.82610  1.00000  0.17390  Biso   1.000  Zn
  Zn12     1.0000 1.00000  0.82610  0.17390  Biso   1.000  Zn
  Zn13     1.0000 0.41337  0.41337  0.76116  Biso   1.000  Zn
  Zn14     1.0000 0.41338  0.41336  0.58726  Biso   1.000  Zn
  Zn15     1.0000 0.41337  0.58726  0.58727  Biso   1.000  Zn
  Zn16     1.0000 0.58728  0.41336  0.58726  Biso   1.000  Zn
  H25      1.0000 0.16156  0.16155  0.81576  Biso   1.000  H
  H26      1.0000 0.16156  0.16155  0.03566  Biso   1.000  H
  H27      1.0000 0.64187  0.86176  0.33545  Biso   1.000  H
  H28      1.0000 0.86177  0.64186  0.33545  Biso   1.000  H
  H29      1.0000 0.16156  0.64186  0.03566  Biso   1.000  H
  H30      1.0000 0.16156  0.86176  0.81576  Biso   1.000  H
  H31      1.0000 0.64187  0.16155  0.33545  Biso   1.000  H
  H32      1.0000 0.86177  0.16155  0.33545  Biso   1.000  H
  H33      1.0000 0.16156  0.86176  0.33545  Biso   1.000  H
  H34      1.0000 0.16156  0.64186  0.33545  Biso   1.000  H
  H35      1.0000 0.64187  0.16155  0.03566  Biso   1.000  H
  H36      1.0000 0.86177  0.16155  0.81576  Biso   1.000  H
  H37      1.0000 0.25182  0.25181  0.94541  Biso   1.000  H
  H38      1.0000 0.25182  0.25181  0.72550  Biso   1.000  H
  H39      1.0000 0.55161  0.77151  0.42571  Biso   1.000  H
  H40      1.0000 0.77152  0.55160  0.42571  Biso   1.000  H
  H41      1.0000 0.77152  0.25181  0.72550  Biso   1.000  H
  H42      1.0000 0.55161  0.25181  0.94541  Biso   1.000  H
  H43      1.0000 0.25182  0.77151  0.42571  Biso   1.000  H
  H44      1.0000 0.25182  0.55160  0.42571  Biso   1.000  H
  H45      1.0000 0.55161  0.25181  0.42571  Biso   1.000  H
  H46      1.0000 0.77152  0.25181  0.42571  Biso   1.000  H
  H47      1.0000 0.25182  0.77151  0.72550  Biso   1.000  H
  H48      1.0000 0.25182  0.55160  0.94541  Biso   1.000  H
  C49      1.0000 0.17981  0.17980  0.84261  Biso   1.000  C
  C50      1.0000 0.17981  0.17980  0.97230  Biso   1.000  C
  C51      1.0000 0.66872  0.79840  0.35370  Biso   1.000  C
  C52      1.0000 0.79841  0.66871  0.35370  Biso   1.000  C
  C53      1.0000 0.17981  0.66871  0.97230  Biso   1.000  C
  C54      1.0000 0.17981  0.79840  0.84261  Biso   1.000  C
  C55      1.0000 0.66872  0.17980  0.35370  Biso   1.000  C
  C56      1.0000 0.79841  0.17980  0.35370  Biso   1.000  C
  C57      1.0000 0.17981  0.79840  0.35370  Biso   1.000  C
  C58      1.0000 0.17981  0.66871  0.35370  Biso   1.000  C
  C59      1.0000 0.66872  0.17980  0.97230  Biso   1.000  C
  C60      1.0000 0.79841  0.17980  0.84261  Biso   1.000  C
  C61      1.0000 0.23357  0.23356  0.91855  Biso   1.000  C
  C62      1.0000 0.23357  0.23356  0.78886  Biso   1.000  C
  C63      1.0000 0.61497  0.74465  0.40746  Biso   1.000  C
  C64      1.0000 0.74466  0.61496  0.40746  Biso   1.000  C
  C65      1.0000 0.74466  0.23356  0.78886  Biso   1.000  C
  C66      1.0000 0.61497  0.23356  0.91855  Biso   1.000  C
  C67      1.0000 0.23357  0.74465  0.40746  Biso   1.000  C
  C68      1.0000 0.23357  0.61496  0.40746  Biso   1.000  C
  C69      1.0000 0.61497  0.23356  0.40746  Biso   1.000  C
  C70      1.0000 0.74466  0.23356  0.40746  Biso   1.000  C
  C71      1.0000 0.23357  0.74465  0.78886  Biso   1.000  C
  C72      1.0000 0.23357  0.61496  0.91855  Biso   1.000  C
  C73      1.0000 0.09511  0.09510  0.99184  Biso   1.000  C
  C74      1.0000 0.15290  0.15289  0.93406  Biso   1.000  C
  C75      1.0000 0.81795  0.81794  0.26900  Biso   1.000  C
  C76      1.0000 0.76017  0.76016  0.32679  Biso   1.000  C
  C77      1.0000 0.09511  0.81794  0.99184  Biso   1.000  C
  C78      1.0000 0.15290  0.76016  0.93406  Biso   1.000  C
  C79      1.0000 0.81795  0.09510  0.26900  Biso   1.000  C
  C80      1.0000 0.76017  0.15289  0.32679  Biso   1.000  C
  C81      1.0000 0.09511  0.81794  0.26900  Biso   1.000  C
  C82      1.0000 0.15290  0.76016  0.32679  Biso   1.000  C
  C83      1.0000 0.81795  0.09510  0.99184  Biso   1.000  C
  C84      1.0000 0.76017  0.15289  0.93406  Biso   1.000  C
  C85      1.0000 0.31827  0.31826  0.76932  Biso   1.000  C
  C86      1.0000 0.26049  0.26048  0.82710  Biso   1.000  C
  C87      1.0000 0.59543  0.59542  0.49216  Biso   1.000  C
  C88      1.0000 0.65321  0.65320  0.43438  Biso   1.000  C
  C89      1.0000 0.59543  0.31826  0.76932  Biso   1.000  C
  C90      1.0000 0.65321  0.26048  0.82710  Biso   1.000  C
  C91      1.0000 0.31827  0.59542  0.49216  Biso   1.000  C
  C92      1.0000 0.26049  0.65320  0.43438  Biso   1.000  C
  C93      1.0000 0.59543  0.31826  0.49216  Biso   1.000  C
  C94      1.0000 0.65321  0.26048  0.43438  Biso   1.000  C
  C95      1.0000 0.31827  0.59542  0.76932  Biso   1.000  C
  C96      1.0000 0.26049  0.65320  0.82710  Biso   1.000  C
  O27      1.0000 0.95653  0.95652  0.13042  Biso   1.000  O
  O28      1.0000 0.45685  0.45684  0.63074  Biso   1.000  O
  O29      1.0000 0.07281  0.07280  0.95317  Biso   1.000  O
  O30      1.0000 0.07281  0.07280  0.07513  Biso   1.000  O
  O31      1.0000 0.77928  0.90123  0.24670  Biso   1.000  O
  O32      1.0000 0.90124  0.77927  0.24670  Biso   1.000  O
  O33      1.0000 0.07281  0.77927  0.07513  Biso   1.000  O
  O34      1.0000 0.07281  0.90123  0.95317  Biso   1.000  O
  O35      1.0000 0.77928  0.07280  0.24670  Biso   1.000  O
  O36      1.0000 0.90124  0.07280  0.24670  Biso   1.000  O
  O37      1.0000 0.07281  0.90123  0.24670  Biso   1.000  O
  O38      1.0000 0.07281  0.77927  0.24670  Biso   1.000  O
  O39      1.0000 0.77928  0.07280  0.07513  Biso   1.000  O
  O40      1.0000 0.90124  0.07280  0.95317  Biso   1.000  O
  O41      1.0000 0.34058  0.34057  0.80799  Biso   1.000  O
  O42      1.0000 0.34058  0.34057  0.68604  Biso   1.000  O
  O43      1.0000 0.51214  0.63409  0.51447  Biso   1.000  O
  O44      1.0000 0.63410  0.51213  0.51447  Biso   1.000  O
  O45      1.0000 0.63410  0.34057  0.68604  Biso   1.000  O
  O46      1.0000 0.51214  0.34057  0.80799  Biso   1.000  O
  O47      1.0000 0.34058  0.63409  0.51447  Biso   1.000  O
  O48      1.0000 0.34058  0.51213  0.51447  Biso   1.000  O
  O49      1.0000 0.51214  0.34057  0.51447  Biso   1.000  O
  O50      1.0000 0.63410  0.34057  0.51447  Biso   1.000  O
  O51      1.0000 0.34058  0.63409  0.68604  Biso   1.000  O
  O52      1.0000 0.34058  0.51213  0.80799  Biso   1.000  O
