data_image0
_cell_length_a       18.255
_cell_length_b       18.255
_cell_length_c       18.255
_cell_angle_alpha    60
_cell_angle_beta     60
_cell_angle_gamma    60

_symmetry_space_group_name_H-M    "P 1"
_symmetry_int_tables_number       1

loop_
  _symmetry_equiv_pos_as_xyz
  'x, y, z'

loop_
  _atom_site_label
  _atom_site_occupancy
  _atom_site_fract_x
  _atom_site_fract_y
  _atom_site_fract_z
  _atom_site_thermal_displace_type
  _atom_site_B_iso_or_equiv
  _atom_site_type_symbol
  C1       1.0000 0.29354  0.29354  0.11938  Biso   1.000  C
  C2       1.0000 0.29354  0.29354  0.29354  Biso   1.000  C
  C3       1.0000 0.11938  0.29354  0.29354  Biso   1.000  C
  C4       1.0000 0.29354  0.11938  0.29354  Biso   1.000  C
  C5       1.0000 0.70646  0.70646  0.88062  Biso   1.000  C
  C6       1.0000 0.70646  0.70646  0.70646  Biso   1.000  C
  C7       1.0000 0.70646  0.88062  0.70646  Biso   1.000  C
  C8       1.0000 0.88062  0.70646  0.70646  Biso   1.000  C
  C9       1.0000 0.45570  0.45570  0.93630  Biso   1.000  C
  C10      1.0000 0.45570  0.45570  0.15230  Biso   1.000  C
  C11      1.0000 0.93630  0.15230  0.45570  Biso   1.000  C
  C12      1.0000 0.15230  0.93630  0.45570  Biso   1.000  C
  C13      1.0000 0.45570  0.93630  0.15230  Biso   1.000  C
  C14      1.0000 0.45570  0.15230  0.93630  Biso   1.000  C
  C15      1.0000 0.93630  0.45570  0.45570  Biso   1.000  C
  C16      1.0000 0.15230  0.45570  0.45570  Biso   1.000  C
  C17      1.0000 0.45570  0.15230  0.45570  Biso   1.000  C
  C18      1.0000 0.45570  0.93630  0.45570  Biso   1.000  C
  C19      1.0000 0.93630  0.45570  0.15230  Biso   1.000  C
  C20      1.0000 0.15230  0.45570  0.93630  Biso   1.000  C
  C21      1.0000 0.54430  0.54430  0.06370  Biso   1.000  C
  C22      1.0000 0.54430  0.54430  0.84770  Biso   1.000  C
  C23      1.0000 0.84770  0.06370  0.54430  Biso   1.000  C
  C24      1.0000 0.06370  0.84770  0.54430  Biso   1.000  C
  C25      1.0000 0.06370  0.54430  0.84770  Biso   1.000  C
  C26      1.0000 0.84770  0.54430  0.06370  Biso   1.000  C
  C27      1.0000 0.54430  0.06370  0.54430  Biso   1.000  C
  C28      1.0000 0.54430  0.84770  0.54430  Biso   1.000  C
  C29      1.0000 0.84770  0.54430  0.54430  Biso   1.000  C
  C30      1.0000 0.06370  0.54430  0.54430  Biso   1.000  C
  C31      1.0000 0.54430  0.06370  0.84770  Biso   1.000  C
  C32      1.0000 0.54430  0.84770  0.06370  Biso   1.000  C
  C33      1.0000 0.47332  0.47332  0.96310  Biso   1.000  C
  C34      1.0000 0.47332  0.47332  0.09026  Biso   1.000  C
  C35      1.0000 0.96310  0.09026  0.47332  Biso   1.000  C
  C36      1.0000 0.09026  0.96310  0.47332  Biso   1.000  C
  C37      1.0000 0.47332  0.96310  0.09026  Biso   1.000  C
  C38      1.0000 0.47332  0.09026  0.96310  Biso   1.000  C
  C39      1.0000 0.96310  0.47332  0.47332  Biso   1.000  C
  C40      1.0000 0.09026  0.47332  0.47332  Biso   1.000  C
  C41      1.0000 0.47332  0.09026  0.47332  Biso   1.000  C
  C42      1.0000 0.47332  0.96310  0.47332  Biso   1.000  C
  C43      1.0000 0.96310  0.47332  0.09026  Biso   1.000  C
  C44      1.0000 0.09026  0.47332  0.96310  Biso   1.000  C
  C45      1.0000 0.52668  0.52668  0.03690  Biso   1.000  C
  C46      1.0000 0.52668  0.52668  0.90974  Biso   1.000  C
  C47      1.0000 0.90974  0.03690  0.52668  Biso   1.000  C
  C48      1.0000 0.03690  0.90974  0.52668  Biso   1.000  C
  C49      1.0000 0.03690  0.52668  0.90974  Biso   1.000  C
  C50      1.0000 0.90974  0.52668  0.03690  Biso   1.000  C
  C51      1.0000 0.52668  0.03690  0.52668  Biso   1.000  C
  C52      1.0000 0.52668  0.90974  0.52668  Biso   1.000  C
  C53      1.0000 0.90974  0.52668  0.52668  Biso   1.000  C
  C54      1.0000 0.03690  0.52668  0.52668  Biso   1.000  C
  C55      1.0000 0.52668  0.03690  0.90974  Biso   1.000  C
  C56      1.0000 0.52668  0.90974  0.03690  Biso   1.000  C
  C57      1.0000 0.38870  0.38870  0.11130  Biso   1.000  C
  C58      1.0000 0.44580  0.44580  0.05420  Biso   1.000  C
  C59      1.0000 0.11130  0.11130  0.38870  Biso   1.000  C
  C60      1.0000 0.05420  0.05420  0.44580  Biso   1.000  C
  C61      1.0000 0.38870  0.11130  0.11130  Biso   1.000  C
  C62      1.0000 0.44580  0.05420  0.05420  Biso   1.000  C
  C63      1.0000 0.11130  0.38870  0.38870  Biso   1.000  C
  C64      1.0000 0.05420  0.44580  0.44580  Biso   1.000  C
  C65      1.0000 0.38870  0.11130  0.38870  Biso   1.000  C
  C66      1.0000 0.44580  0.05420  0.44580  Biso   1.000  C
  C67      1.0000 0.11130  0.38870  0.11130  Biso   1.000  C
  C68      1.0000 0.05420  0.44580  0.05420  Biso   1.000  C
  C69      1.0000 0.61130  0.61130  0.88870  Biso   1.000  C
  C70      1.0000 0.55420  0.55420  0.94580  Biso   1.000  C
  C71      1.0000 0.88870  0.88870  0.61130  Biso   1.000  C
  C72      1.0000 0.94580  0.94580  0.55420  Biso   1.000  C
  C73      1.0000 0.88870  0.61130  0.88870  Biso   1.000  C
  C74      1.0000 0.94580  0.55420  0.94580  Biso   1.000  C
  C75      1.0000 0.61130  0.88870  0.61130  Biso   1.000  C
  C76      1.0000 0.55420  0.94580  0.55420  Biso   1.000  C
  C77      1.0000 0.88870  0.61130  0.61130  Biso   1.000  C
  C78      1.0000 0.94580  0.55420  0.55420  Biso   1.000  C
  C79      1.0000 0.61130  0.88870  0.88870  Biso   1.000  C
  C80      1.0000 0.55420  0.94580  0.94580  Biso   1.000  C
  C81      1.0000 0.25000  0.25000  0.25000  Biso   1.000  C
  C82      1.0000 0.75000  0.75000  0.75000  Biso   1.000  C
  C83      1.0000 0.36613  0.36613  0.07303  Biso   1.000  C
  C84      1.0000 0.36613  0.36613  0.19471  Biso   1.000  C
  C85      1.0000 0.07303  0.19471  0.36613  Biso   1.000  C
  C86      1.0000 0.19471  0.07303  0.36613  Biso   1.000  C
  C87      1.0000 0.36613  0.07303  0.19471  Biso   1.000  C
  C88      1.0000 0.36613  0.19471  0.07303  Biso   1.000  C
  C89      1.0000 0.07303  0.36613  0.36613  Biso   1.000  C
  C90      1.0000 0.19471  0.36613  0.36613  Biso   1.000  C
  C91      1.0000 0.36613  0.19471  0.36613  Biso   1.000  C
  C92      1.0000 0.36613  0.07303  0.36613  Biso   1.000  C
  C93      1.0000 0.07303  0.36613  0.19471  Biso   1.000  C
  C94      1.0000 0.19471  0.36613  0.07303  Biso   1.000  C
  C95      1.0000 0.63387  0.63387  0.92697  Biso   1.000  C
  C96      1.0000 0.63387  0.63387  0.80529  Biso   1.000  C
  C97      1.0000 0.80529  0.92697  0.63387  Biso   1.000  C
  C98      1.0000 0.92697  0.80529  0.63387  Biso   1.000  C
  C99      1.0000 0.92697  0.63387  0.80529  Biso   1.000  C
  C100     1.0000 0.80529  0.63387  0.92697  Biso   1.000  C
  C101     1.0000 0.63387  0.92697  0.63387  Biso   1.000  C
  C102     1.0000 0.63387  0.80529  0.63387  Biso   1.000  C
  C103     1.0000 0.80529  0.63387  0.63387  Biso   1.000  C
  C104     1.0000 0.92697  0.63387  0.63387  Biso   1.000  C
  C105     1.0000 0.63387  0.92697  0.80529  Biso   1.000  C
  C106     1.0000 0.63387  0.80529  0.92697  Biso   1.000  C
  O1       1.0000 0.59591  0.07824  0.71894  Biso   1.000  O
  O2       1.0000 0.59591  0.25297  0.71894  Biso   1.000  O
  O3       1.0000 0.42117  0.25297  0.71894  Biso   1.000  O
  O4       1.0000 0.59591  0.25297  0.54421  Biso   1.000  O
  O5       1.0000 0.01756  0.66260  0.12857  Biso   1.000  O
  O6       1.0000 0.01756  0.83734  0.12857  Biso   1.000  O
  O7       1.0000 0.19230  0.66260  0.12857  Biso   1.000  O
  O8       1.0000 0.01756  0.66260  0.30331  Biso   1.000  O
  O9       1.0000 0.45756  0.89169  0.88139  Biso   1.000  O
  O10      1.0000 0.75836  0.41542  0.58059  Biso   1.000  O
  O11      1.0000 0.23463  0.11463  0.88139  Biso   1.000  O
  O12      1.0000 0.75836  0.41542  0.35766  Biso   1.000  O
  O13      1.0000 0.23463  0.41542  0.58059  Biso   1.000  O
  O14      1.0000 0.75836  0.11463  0.88139  Biso   1.000  O
  O15      1.0000 0.45756  0.41542  0.35766  Biso   1.000  O
  O16      1.0000 0.75836  0.89169  0.88139  Biso   1.000  O
  O17      1.0000 0.75836  0.11463  0.35766  Biso   1.000  O
  O18      1.0000 0.45756  0.41542  0.88139  Biso   1.000  O
  O19      1.0000 0.75836  0.89169  0.58059  Biso   1.000  O
  O20      1.0000 0.23463  0.41542  0.88139  Biso   1.000  O
  O21      1.0000 0.15591  0.50015  0.96612  Biso   1.000  O
  O22      1.0000 0.85511  0.02388  0.26692  Biso   1.000  O
  O23      1.0000 0.37884  0.50015  0.96612  Biso   1.000  O
  O24      1.0000 0.85511  0.80095  0.48985  Biso   1.000  O
  O25      1.0000 0.37884  0.50015  0.26692  Biso   1.000  O
  O26      1.0000 0.85511  0.02388  0.96612  Biso   1.000  O
  O27      1.0000 0.15591  0.50015  0.48985  Biso   1.000  O
  O28      1.0000 0.85511  0.80095  0.96612  Biso   1.000  O
  O29      1.0000 0.85511  0.50015  0.48985  Biso   1.000  O
  O30      1.0000 0.15591  0.02388  0.96612  Biso   1.000  O
  O31      1.0000 0.85511  0.50015  0.26692  Biso   1.000  O
  O32      1.0000 0.37884  0.80095  0.96612  Biso   1.000  O
  O33      1.0000 0.39397  0.91840  0.89983  Biso   1.000  O
  O34      1.0000 0.77680  0.43386  0.51700  Biso   1.000  O
  O35      1.0000 0.26134  0.05104  0.89983  Biso   1.000  O
  O36      1.0000 0.77680  0.43386  0.38437  Biso   1.000  O
  O37      1.0000 0.26134  0.43386  0.51700  Biso   1.000  O
  O38      1.0000 0.77680  0.05104  0.89983  Biso   1.000  O
  O39      1.0000 0.39397  0.43386  0.38437  Biso   1.000  O
  O40      1.0000 0.77680  0.91840  0.89983  Biso   1.000  O
  O41      1.0000 0.77680  0.05104  0.38437  Biso   1.000  O
  O42      1.0000 0.39397  0.43386  0.89983  Biso   1.000  O
  O43      1.0000 0.77680  0.91840  0.51700  Biso   1.000  O
  O44      1.0000 0.26134  0.43386  0.89983  Biso   1.000  O
  O45      1.0000 0.21950  0.48171  0.94768  Biso   1.000  O
  O46      1.0000 0.83667  0.99717  0.33051  Biso   1.000  O
  O47      1.0000 0.35213  0.48171  0.94768  Biso   1.000  O
  O48      1.0000 0.83667  0.86454  0.46314  Biso   1.000  O
  O49      1.0000 0.35213  0.48171  0.33051  Biso   1.000  O
  O50      1.0000 0.83667  0.99717  0.94768  Biso   1.000  O
  O51      1.0000 0.21950  0.48171  0.46314  Biso   1.000  O
  O52      1.0000 0.83667  0.86454  0.94768  Biso   1.000  O
  O53      1.0000 0.83667  0.48171  0.46314  Biso   1.000  O
  O54      1.0000 0.21950  0.99717  0.94768  Biso   1.000  O
  O55      1.0000 0.83667  0.48171  0.33051  Biso   1.000  O
  O56      1.0000 0.35213  0.86454  0.94768  Biso   1.000  O
  O57      1.0000 0.41293  0.07000  0.81455  Biso   1.000  O
  O58      1.0000 0.35477  0.01184  0.87271  Biso   1.000  O
  O59      1.0000 0.69152  0.34858  0.53597  Biso   1.000  O
  O60      1.0000 0.74968  0.40674  0.47781  Biso   1.000  O
  O61      1.0000 0.41293  0.34858  0.53597  Biso   1.000  O
  O62      1.0000 0.35477  0.40674  0.47781  Biso   1.000  O
  O63      1.0000 0.69152  0.07000  0.81455  Biso   1.000  O
  O64      1.0000 0.74968  0.01184  0.87271  Biso   1.000  O
  O65      1.0000 0.69152  0.07000  0.53597  Biso   1.000  O
  O66      1.0000 0.74968  0.01184  0.47781  Biso   1.000  O
  O67      1.0000 0.41293  0.34858  0.81455  Biso   1.000  O
  O68      1.0000 0.35477  0.40674  0.87271  Biso   1.000  O
  O69      1.0000 0.20054  0.56699  0.03296  Biso   1.000  O
  O70      1.0000 0.25869  0.50884  0.97480  Biso   1.000  O
  O71      1.0000 0.92195  0.84558  0.31155  Biso   1.000  O
  O72      1.0000 0.86379  0.90374  0.36970  Biso   1.000  O
  O73      1.0000 0.20054  0.56699  0.31155  Biso   1.000  O
  O74      1.0000 0.25869  0.50884  0.36970  Biso   1.000  O
  O75      1.0000 0.92195  0.84558  0.03296  Biso   1.000  O
  O76      1.0000 0.86379  0.90374  0.97480  Biso   1.000  O
  O77      1.0000 0.92195  0.56699  0.31155  Biso   1.000  O
  O78      1.0000 0.86379  0.50884  0.36970  Biso   1.000  O
  O79      1.0000 0.20054  0.84558  0.03296  Biso   1.000  O
  O80      1.0000 0.25869  0.90374  0.97480  Biso   1.000  O
  O81      1.0000 0.55222  0.20929  0.67526  Biso   1.000  O
  O82      1.0000 0.06124  0.70629  0.17225  Biso   1.000  O
  O83      1.0000 0.49699  0.03056  0.79224  Biso   1.000  O
  O84      1.0000 0.66920  0.32627  0.62003  Biso   1.000  O
  O85      1.0000 0.37350  0.15406  0.79224  Biso   1.000  O
  O86      1.0000 0.66920  0.32627  0.49653  Biso   1.000  O
  O87      1.0000 0.37350  0.32627  0.62003  Biso   1.000  O
  O88      1.0000 0.66920  0.15406  0.79224  Biso   1.000  O
  O89      1.0000 0.49699  0.32627  0.49653  Biso   1.000  O
  O90      1.0000 0.66920  0.03056  0.79224  Biso   1.000  O
  O91      1.0000 0.66920  0.15406  0.49653  Biso   1.000  O
  O92      1.0000 0.49699  0.32627  0.79224  Biso   1.000  O
  O93      1.0000 0.66920  0.03056  0.62003  Biso   1.000  O
  O94      1.0000 0.37350  0.32627  0.79224  Biso   1.000  O
  O95      1.0000 0.11647  0.58931  0.05527  Biso   1.000  O
  O96      1.0000 0.94427  0.88501  0.22748  Biso   1.000  O
  O97      1.0000 0.23997  0.58931  0.05527  Biso   1.000  O
  O98      1.0000 0.94427  0.76152  0.35098  Biso   1.000  O
  O99      1.0000 0.23997  0.58931  0.22748  Biso   1.000  O
  O100     1.0000 0.94427  0.88501  0.05527  Biso   1.000  O
  O101     1.0000 0.11647  0.58931  0.35098  Biso   1.000  O
  O102     1.0000 0.94427  0.76152  0.05527  Biso   1.000  O
  O103     1.0000 0.94427  0.58931  0.35098  Biso   1.000  O
  O104     1.0000 0.11647  0.88501  0.05527  Biso   1.000  O
  O105     1.0000 0.94427  0.58931  0.22748  Biso   1.000  O
  O106     1.0000 0.23997  0.76152  0.05527  Biso   1.000  O
