data_image0
_cell_length_a       18.228
_cell_length_b       18.228
_cell_length_c       18.228
_cell_angle_alpha    60
_cell_angle_beta     60
_cell_angle_gamma    60

_symmetry_space_group_name_H-M    "P 1"
_symmetry_int_tables_number       1

loop_
  _symmetry_equiv_pos_as_xyz
  'x, y, z'

loop_
  _atom_site_label
  _atom_site_occupancy
  _atom_site_fract_x
  _atom_site_fract_y
  _atom_site_fract_z
  _atom_site_thermal_displace_type
  _atom_site_B_iso_or_equiv
  _atom_site_type_symbol
  Zn1      1.0000 0.29358  0.29359  0.11924  Biso   1.000  Zn
  Zn2      1.0000 0.29358  0.29359  0.29359  Biso   1.000  Zn
  Zn3      1.0000 0.11923  0.29359  0.29359  Biso   1.000  Zn
  Zn4      1.0000 0.29358  0.11924  0.29359  Biso   1.000  Zn
  Zn5      1.0000 0.70642  0.70641  0.88076  Biso   1.000  Zn
  Zn6      1.0000 0.70642  0.70641  0.70641  Biso   1.000  Zn
  Zn7      1.0000 0.70642  0.88076  0.70641  Biso   1.000  Zn
  Zn8      1.0000 0.88077  0.70641  0.70641  Biso   1.000  Zn
  H1       1.0000 0.45570  0.45570  0.93670  Biso   1.000  H
  H2       1.0000 0.45570  0.45570  0.15190  Biso   1.000  H
  H3       1.0000 0.93670  0.15190  0.45570  Biso   1.000  H
  H4       1.0000 0.15190  0.93670  0.45570  Biso   1.000  H
  H5       1.0000 0.45570  0.93670  0.15190  Biso   1.000  H
  H6       1.0000 0.45570  0.15190  0.93670  Biso   1.000  H
  H7       1.0000 0.93670  0.45570  0.45570  Biso   1.000  H
  H8       1.0000 0.15190  0.45570  0.45570  Biso   1.000  H
  H9       1.0000 0.45570  0.15190  0.45570  Biso   1.000  H
  H10      1.0000 0.45570  0.93670  0.45570  Biso   1.000  H
  H11      1.0000 0.93670  0.45570  0.15190  Biso   1.000  H
  H12      1.0000 0.15190  0.45570  0.93670  Biso   1.000  H
  H13      1.0000 0.54430  0.54430  0.06330  Biso   1.000  H
  H14      1.0000 0.54430  0.54430  0.84810  Biso   1.000  H
  H15      1.0000 0.84810  0.06330  0.54430  Biso   1.000  H
  H16      1.0000 0.06330  0.84810  0.54430  Biso   1.000  H
  H17      1.0000 0.06330  0.54430  0.84810  Biso   1.000  H
  H18      1.0000 0.84810  0.54430  0.06330  Biso   1.000  H
  H19      1.0000 0.54430  0.06330  0.54430  Biso   1.000  H
  H20      1.0000 0.54430  0.84810  0.54430  Biso   1.000  H
  H21      1.0000 0.84810  0.54430  0.54430  Biso   1.000  H
  H22      1.0000 0.06330  0.54430  0.54430  Biso   1.000  H
  H23      1.0000 0.54430  0.06330  0.84810  Biso   1.000  H
  H24      1.0000 0.54430  0.84810  0.06330  Biso   1.000  H
  C1       1.0000 0.47340  0.47340  0.96356  Biso   1.000  C
  C2       1.0000 0.47340  0.47340  0.08964  Biso   1.000  C
  C3       1.0000 0.96356  0.08964  0.47340  Biso   1.000  C
  C4       1.0000 0.08964  0.96356  0.47340  Biso   1.000  C
  C5       1.0000 0.47340  0.96356  0.08964  Biso   1.000  C
  C6       1.0000 0.47340  0.08964  0.96356  Biso   1.000  C
  C7       1.0000 0.96356  0.47340  0.47340  Biso   1.000  C
  C8       1.0000 0.08964  0.47340  0.47340  Biso   1.000  C
  C9       1.0000 0.47340  0.08964  0.47340  Biso   1.000  C
  C10      1.0000 0.47340  0.96356  0.47340  Biso   1.000  C
  C11      1.0000 0.96356  0.47340  0.08964  Biso   1.000  C
  C12      1.0000 0.08964  0.47340  0.96356  Biso   1.000  C
  C13      1.0000 0.52660  0.52660  0.03644  Biso   1.000  C
  C14      1.0000 0.52660  0.52660  0.91036  Biso   1.000  C
  C15      1.0000 0.91036  0.03644  0.52660  Biso   1.000  C
  C16      1.0000 0.03644  0.91036  0.52660  Biso   1.000  C
  C17      1.0000 0.03644  0.52660  0.91036  Biso   1.000  C
  C18      1.0000 0.91036  0.52660  0.03644  Biso   1.000  C
  C19      1.0000 0.52660  0.03644  0.52660  Biso   1.000  C
  C20      1.0000 0.52660  0.91036  0.52660  Biso   1.000  C
  C21      1.0000 0.91036  0.52660  0.52660  Biso   1.000  C
  C22      1.0000 0.03644  0.52660  0.52660  Biso   1.000  C
  C23      1.0000 0.52660  0.03644  0.91036  Biso   1.000  C
  C24      1.0000 0.52660  0.91036  0.03644  Biso   1.000  C
  C25      1.0000 0.38850  0.38850  0.11150  Biso   1.000  C
  C26      1.0000 0.44610  0.44610  0.05390  Biso   1.000  C
  C27      1.0000 0.11150  0.11150  0.38850  Biso   1.000  C
  C28      1.0000 0.05390  0.05390  0.44610  Biso   1.000  C
  C29      1.0000 0.38850  0.11150  0.11150  Biso   1.000  C
  C30      1.0000 0.44610  0.05390  0.05390  Biso   1.000  C
  C31      1.0000 0.11150  0.38850  0.38850  Biso   1.000  C
  C32      1.0000 0.05390  0.44610  0.44610  Biso   1.000  C
  C33      1.0000 0.38850  0.11150  0.38850  Biso   1.000  C
  C34      1.0000 0.44610  0.05390  0.44610  Biso   1.000  C
  C35      1.0000 0.11150  0.38850  0.11150  Biso   1.000  C
  C36      1.0000 0.05390  0.44610  0.05390  Biso   1.000  C
  C37      1.0000 0.61150  0.61150  0.88850  Biso   1.000  C
  C38      1.0000 0.55390  0.55390  0.94610  Biso   1.000  C
  C39      1.0000 0.88850  0.88850  0.61150  Biso   1.000  C
  C40      1.0000 0.94610  0.94610  0.55390  Biso   1.000  C
  C41      1.0000 0.88850  0.61150  0.88850  Biso   1.000  C
  C42      1.0000 0.94610  0.55390  0.94610  Biso   1.000  C
  C43      1.0000 0.61150  0.88850  0.61150  Biso   1.000  C
  C44      1.0000 0.55390  0.94610  0.55390  Biso   1.000  C
  C45      1.0000 0.88850  0.61150  0.61150  Biso   1.000  C
  C46      1.0000 0.94610  0.55390  0.55390  Biso   1.000  C
  C47      1.0000 0.61150  0.88850  0.88850  Biso   1.000  C
  C48      1.0000 0.55390  0.94610  0.94610  Biso   1.000  C
  O1       1.0000 0.25000  0.25000  0.25000  Biso   1.000  O
  O2       1.0000 0.75000  0.75000  0.75000  Biso   1.000  O
  O3       1.0000 0.36610  0.36610  0.07322  Biso   1.000  O
  O4       1.0000 0.36610  0.36610  0.19458  Biso   1.000  O
  O5       1.0000 0.07322  0.19458  0.36610  Biso   1.000  O
  O6       1.0000 0.19458  0.07322  0.36610  Biso   1.000  O
  O7       1.0000 0.36610  0.07322  0.19458  Biso   1.000  O
  O8       1.0000 0.36610  0.19458  0.07322  Biso   1.000  O
  O9       1.0000 0.07322  0.36610  0.36610  Biso   1.000  O
  O10      1.0000 0.19458  0.36610  0.36610  Biso   1.000  O
  O11      1.0000 0.36610  0.19458  0.36610  Biso   1.000  O
  O12      1.0000 0.36610  0.07322  0.36610  Biso   1.000  O
  O13      1.0000 0.07322  0.36610  0.19458  Biso   1.000  O
  O14      1.0000 0.19458  0.36610  0.07322  Biso   1.000  O
  O15      1.0000 0.63390  0.63390  0.92678  Biso   1.000  O
  O16      1.0000 0.63390  0.63390  0.80542  Biso   1.000  O
  O17      1.0000 0.80542  0.92678  0.63390  Biso   1.000  O
  O18      1.0000 0.92678  0.80542  0.63390  Biso   1.000  O
  O19      1.0000 0.92678  0.63390  0.80542  Biso   1.000  O
  O20      1.0000 0.80542  0.63390  0.92678  Biso   1.000  O
  O21      1.0000 0.63390  0.92678  0.63390  Biso   1.000  O
  O22      1.0000 0.63390  0.80542  0.63390  Biso   1.000  O
  O23      1.0000 0.80542  0.63390  0.63390  Biso   1.000  O
  O24      1.0000 0.92678  0.63390  0.63390  Biso   1.000  O
  O25      1.0000 0.63390  0.92678  0.80542  Biso   1.000  O
  O26      1.0000 0.63390  0.80542  0.92678  Biso   1.000  O
  Zn9      1.0000 0.68790  0.35045  0.47098  Biso   1.000  Zn
  Zn10     1.0000 0.09897  0.76150  0.05997  Biso   1.000  Zn
  Zn11     1.0000 0.92416  0.93631  0.05997  Biso   1.000  Zn
  Zn12     1.0000 0.51309  0.52526  0.47098  Biso   1.000  Zn
  Zn13     1.0000 0.51289  0.35025  0.64595  Biso   1.000  Zn
  Zn14     1.0000 0.51302  0.35038  0.47077  Biso   1.000  Zn
  Zn15     1.0000 0.09917  0.93651  0.88500  Biso   1.000  Zn
  Zn16     1.0000 0.09904  0.93638  0.06018  Biso   1.000  Zn
  H25      1.0000 0.34996  0.70606  0.61276  Biso   1.000  H
  H26      1.0000 0.34683  0.49197  0.82724  Biso   1.000  H
  H27      1.0000 0.35358  0.70407  0.30942  Biso   1.000  H
  H28      1.0000 0.35307  0.49080  0.30411  Biso   1.000  H
  H29      1.0000 0.86784  0.49140  0.31123  Biso   1.000  H
  H30      1.0000 0.74334  0.09946  0.91819  Biso   1.000  H
  H31      1.0000 0.95745  0.10258  0.70370  Biso   1.000  H
  H32      1.0000 0.74533  0.09583  0.22152  Biso   1.000  H
  H33      1.0000 0.95862  0.09633  0.22684  Biso   1.000  H
  H34      1.0000 0.95801  0.58158  0.21972  Biso   1.000  H
  H35      1.0000 0.26211  0.58070  0.91819  Biso   1.000  H
  H36      1.0000 0.26523  0.79478  0.70370  Biso   1.000  H
  H37      1.0000 0.25848  0.58269  0.22152  Biso   1.000  H
  H38      1.0000 0.25899  0.79596  0.22684  Biso   1.000  H
  H39      1.0000 0.74423  0.79536  0.21972  Biso   1.000  H
  H40      1.0000 0.86872  0.18730  0.61276  Biso   1.000  H
  H41      1.0000 0.65462  0.18418  0.82724  Biso   1.000  H
  H42      1.0000 0.86674  0.19092  0.30942  Biso   1.000  H
  H43      1.0000 0.65344  0.19042  0.30411  Biso   1.000  H
  H44      1.0000 0.65405  0.70517  0.31123  Biso   1.000  H
  H45      1.0000 0.35125  0.18860  0.61205  Biso   1.000  H
  H46      1.0000 0.34854  0.18588  0.83115  Biso   1.000  H
  H47      1.0000 0.26081  0.09815  0.91889  Biso   1.000  H
  H48      1.0000 0.26353  0.10087  0.69979  Biso   1.000  H
  C49      1.0000 0.41812  0.53499  0.65156  Biso   1.000  C
  C50      1.0000 0.35917  0.59214  0.71213  Biso   1.000  C
  C51      1.0000 0.33301  0.67949  0.67523  Biso   1.000  C
  C52      1.0000 0.33119  0.55433  0.80157  Biso   1.000  C
  C53      1.0000 0.41854  0.53380  0.37420  Biso   1.000  C
  C54      1.0000 0.36250  0.58965  0.31715  Biso   1.000  C
  C55      1.0000 0.33464  0.67830  0.29188  Biso   1.000  C
  C56      1.0000 0.33423  0.55296  0.28847  Biso   1.000  C
  C57      1.0000 0.84147  0.55366  0.29168  Biso   1.000  C
  C58      1.0000 0.91443  0.03128  0.87938  Biso   1.000  C
  C59      1.0000 0.85728  0.09024  0.81882  Biso   1.000  C
  C60      1.0000 0.76991  0.11640  0.85572  Biso   1.000  C
  C61      1.0000 0.89509  0.11821  0.72937  Biso   1.000  C
  C62      1.0000 0.91561  0.03087  0.15674  Biso   1.000  C
  C63      1.0000 0.85977  0.08691  0.21380  Biso   1.000  C
  C64      1.0000 0.77109  0.11478  0.23907  Biso   1.000  C
  C65      1.0000 0.89646  0.11518  0.24248  Biso   1.000  C
  C66      1.0000 0.89575  0.60795  0.23927  Biso   1.000  C
  C67      1.0000 0.19394  0.75176  0.87938  Biso   1.000  C
  C68      1.0000 0.25290  0.69462  0.81882  Biso   1.000  C
  C69      1.0000 0.27905  0.60727  0.85572  Biso   1.000  C
  C70      1.0000 0.28087  0.73242  0.72937  Biso   1.000  C
  C71      1.0000 0.19353  0.75295  0.15674  Biso   1.000  C
  C72      1.0000 0.24957  0.69710  0.21380  Biso   1.000  C
  C73      1.0000 0.27743  0.60845  0.23907  Biso   1.000  C
  C74      1.0000 0.27784  0.73380  0.24248  Biso   1.000  C
  C75      1.0000 0.77059  0.73310  0.23927  Biso   1.000  C
  C76      1.0000 0.69764  0.25547  0.65156  Biso   1.000  C
  C77      1.0000 0.75478  0.19652  0.71213  Biso   1.000  C
  C78      1.0000 0.84215  0.17035  0.67523  Biso   1.000  C
  C79      1.0000 0.71698  0.16854  0.80157  Biso   1.000  C
  C80      1.0000 0.69645  0.25589  0.37420  Biso   1.000  C
  C81      1.0000 0.75229  0.19985  0.31715  Biso   1.000  C
  C82      1.0000 0.84097  0.17198  0.29188  Biso   1.000  C
  C83      1.0000 0.71560  0.17157  0.28847  Biso   1.000  C
  C84      1.0000 0.71631  0.67881  0.29168  Biso   1.000  C
  C85      1.0000 0.41642  0.25377  0.65818  Biso   1.000  C
  C86      1.0000 0.36017  0.19752  0.71133  Biso   1.000  C
  C87      1.0000 0.33351  0.17085  0.67422  Biso   1.000  C
  C88      1.0000 0.33109  0.16844  0.80358  Biso   1.000  C
  C89      1.0000 0.69354  0.53090  0.37942  Biso   1.000  C
  C90      1.0000 0.75389  0.59125  0.31725  Biso   1.000  C
  C91      1.0000 0.19564  0.03299  0.87277  Biso   1.000  C
  C92      1.0000 0.25189  0.08924  0.81962  Biso   1.000  C
  C93      1.0000 0.27856  0.11590  0.85672  Biso   1.000  C
  C94      1.0000 0.28097  0.11831  0.72737  Biso   1.000  C
  C95      1.0000 0.91852  0.75586  0.15153  Biso   1.000  C
  C96      1.0000 0.85817  0.69550  0.21370  Biso   1.000  C
  O27      1.0000 0.43827  0.44907  0.69518  Biso   1.000  O
  O28      1.0000 0.44068  0.57560  0.56863  Biso   1.000  O
  O29      1.0000 0.43799  0.44798  0.39957  Biso   1.000  O
  O30      1.0000 0.44019  0.57411  0.39676  Biso   1.000  O
  O31      1.0000 0.73605  0.44768  0.39907  Biso   1.000  O
  O32      1.0000 0.00035  0.01113  0.83577  Biso   1.000  O
  O33      1.0000 0.87382  0.00872  0.96231  Biso   1.000  O
  O34      1.0000 0.00143  0.01142  0.13137  Biso   1.000  O
  O35      1.0000 0.87531  0.00921  0.13418  Biso   1.000  O
  O36      1.0000 0.00174  0.71335  0.13188  Biso   1.000  O
  O37      1.0000 0.17379  0.83769  0.83577  Biso   1.000  O
  O38      1.0000 0.17138  0.71115  0.96231  Biso   1.000  O
  O39      1.0000 0.17408  0.83877  0.13137  Biso   1.000  O
  O40      1.0000 0.17187  0.71265  0.13418  Biso   1.000  O
  O41      1.0000 0.87602  0.83907  0.13188  Biso   1.000  O
  O42      1.0000 0.61171  0.27562  0.69518  Biso   1.000  O
  O43      1.0000 0.73824  0.27803  0.56863  Biso   1.000  O
  O44      1.0000 0.61063  0.27534  0.39957  Biso   1.000  O
  O45      1.0000 0.73675  0.27754  0.39676  Biso   1.000  O
  O46      1.0000 0.61032  0.57340  0.39907  Biso   1.000  O
  O47      1.0000 0.55658  0.39394  0.51499  Biso   1.000  O
  O48      1.0000 0.43967  0.27703  0.69418  Biso   1.000  O
  O49      1.0000 0.43808  0.27543  0.57335  Biso   1.000  O
  O50      1.0000 0.05548  0.89282  0.01596  Biso   1.000  O
  O51      1.0000 0.17239  0.00973  0.83677  Biso   1.000  O
  O52      1.0000 0.17398  0.01133  0.95760  Biso   1.000  O
