data_image0
_cell_length_a       18.2507
_cell_length_b       18.2507
_cell_length_c       18.2507
_cell_angle_alpha    60
_cell_angle_beta     60
_cell_angle_gamma    60

_symmetry_space_group_name_H-M    "P 1"
_symmetry_int_tables_number       1

loop_
  _symmetry_equiv_pos_as_xyz
  'x, y, z'

loop_
  _atom_site_label
  _atom_site_occupancy
  _atom_site_fract_x
  _atom_site_fract_y
  _atom_site_fract_z
  _atom_site_thermal_displace_type
  _atom_site_B_iso_or_equiv
  _atom_site_type_symbol
  C1       1.0000 0.29354  0.29353  0.11940  Biso   1.000  C
  C2       1.0000 0.29354  0.29353  0.29353  Biso   1.000  C
  C3       1.0000 0.11941  0.29353  0.29353  Biso   1.000  C
  C4       1.0000 0.29354  0.11940  0.29353  Biso   1.000  C
  C5       1.0000 0.70646  0.70647  0.88060  Biso   1.000  C
  C6       1.0000 0.70646  0.70647  0.70647  Biso   1.000  C
  C7       1.0000 0.70646  0.88060  0.70647  Biso   1.000  C
  C8       1.0000 0.88059  0.70647  0.70647  Biso   1.000  C
  C9       1.0000 0.45580  0.45580  0.93620  Biso   1.000  C
  C10      1.0000 0.45580  0.45580  0.15220  Biso   1.000  C
  C11      1.0000 0.93620  0.15220  0.45580  Biso   1.000  C
  C12      1.0000 0.15220  0.93620  0.45580  Biso   1.000  C
  C13      1.0000 0.45580  0.93620  0.15220  Biso   1.000  C
  C14      1.0000 0.45580  0.15220  0.93620  Biso   1.000  C
  C15      1.0000 0.93620  0.45580  0.45580  Biso   1.000  C
  C16      1.0000 0.15220  0.45580  0.45580  Biso   1.000  C
  C17      1.0000 0.45580  0.15220  0.45580  Biso   1.000  C
  C18      1.0000 0.45580  0.93620  0.45580  Biso   1.000  C
  C19      1.0000 0.93620  0.45580  0.15220  Biso   1.000  C
  C20      1.0000 0.15220  0.45580  0.93620  Biso   1.000  C
  C21      1.0000 0.54420  0.54420  0.06380  Biso   1.000  C
  C22      1.0000 0.54420  0.54420  0.84780  Biso   1.000  C
  C23      1.0000 0.84780  0.06380  0.54420  Biso   1.000  C
  C24      1.0000 0.06380  0.84780  0.54420  Biso   1.000  C
  C25      1.0000 0.06380  0.54420  0.84780  Biso   1.000  C
  C26      1.0000 0.84780  0.54420  0.06380  Biso   1.000  C
  C27      1.0000 0.54420  0.06380  0.54420  Biso   1.000  C
  C28      1.0000 0.54420  0.84780  0.54420  Biso   1.000  C
  C29      1.0000 0.84780  0.54420  0.54420  Biso   1.000  C
  C30      1.0000 0.06380  0.54420  0.54420  Biso   1.000  C
  C31      1.0000 0.54420  0.06380  0.84780  Biso   1.000  C
  C32      1.0000 0.54420  0.84780  0.06380  Biso   1.000  C
  C33      1.0000 0.47349  0.47349  0.96297  Biso   1.000  C
  C34      1.0000 0.47349  0.47349  0.09005  Biso   1.000  C
  C35      1.0000 0.96297  0.09005  0.47349  Biso   1.000  C
  C36      1.0000 0.09005  0.96297  0.47349  Biso   1.000  C
  C37      1.0000 0.47349  0.96297  0.09005  Biso   1.000  C
  C38      1.0000 0.47349  0.09005  0.96297  Biso   1.000  C
  C39      1.0000 0.96297  0.47349  0.47349  Biso   1.000  C
  C40      1.0000 0.09005  0.47349  0.47349  Biso   1.000  C
  C41      1.0000 0.47349  0.09005  0.47349  Biso   1.000  C
  C42      1.0000 0.47349  0.96297  0.47349  Biso   1.000  C
  C43      1.0000 0.96297  0.47349  0.09005  Biso   1.000  C
  C44      1.0000 0.09005  0.47349  0.96297  Biso   1.000  C
  C45      1.0000 0.52651  0.52651  0.03703  Biso   1.000  C
  C46      1.0000 0.52651  0.52651  0.90995  Biso   1.000  C
  C47      1.0000 0.90995  0.03703  0.52651  Biso   1.000  C
  C48      1.0000 0.03703  0.90995  0.52651  Biso   1.000  C
  C49      1.0000 0.03703  0.52651  0.90995  Biso   1.000  C
  C50      1.0000 0.90995  0.52651  0.03703  Biso   1.000  C
  C51      1.0000 0.52651  0.03703  0.52651  Biso   1.000  C
  C52      1.0000 0.52651  0.90995  0.52651  Biso   1.000  C
  C53      1.0000 0.90995  0.52651  0.52651  Biso   1.000  C
  C54      1.0000 0.03703  0.52651  0.52651  Biso   1.000  C
  C55      1.0000 0.52651  0.03703  0.90995  Biso   1.000  C
  C56      1.0000 0.52651  0.90995  0.03703  Biso   1.000  C
  C57      1.0000 0.38859  0.38859  0.11141  Biso   1.000  C
  C58      1.0000 0.44630  0.44630  0.05370  Biso   1.000  C
  C59      1.0000 0.11141  0.11141  0.38859  Biso   1.000  C
  C60      1.0000 0.05370  0.05370  0.44630  Biso   1.000  C
  C61      1.0000 0.38859  0.11141  0.11141  Biso   1.000  C
  C62      1.0000 0.44630  0.05370  0.05370  Biso   1.000  C
  C63      1.0000 0.11141  0.38859  0.38859  Biso   1.000  C
  C64      1.0000 0.05370  0.44630  0.44630  Biso   1.000  C
  C65      1.0000 0.38859  0.11141  0.38859  Biso   1.000  C
  C66      1.0000 0.44630  0.05370  0.44630  Biso   1.000  C
  C67      1.0000 0.11141  0.38859  0.11141  Biso   1.000  C
  C68      1.0000 0.05370  0.44630  0.05370  Biso   1.000  C
  C69      1.0000 0.61141  0.61141  0.88859  Biso   1.000  C
  C70      1.0000 0.55370  0.55370  0.94630  Biso   1.000  C
  C71      1.0000 0.88859  0.88859  0.61141  Biso   1.000  C
  C72      1.0000 0.94630  0.94630  0.55370  Biso   1.000  C
  C73      1.0000 0.88859  0.61141  0.88859  Biso   1.000  C
  C74      1.0000 0.94630  0.55370  0.94630  Biso   1.000  C
  C75      1.0000 0.61141  0.88859  0.61141  Biso   1.000  C
  C76      1.0000 0.55370  0.94630  0.55370  Biso   1.000  C
  C77      1.0000 0.88859  0.61141  0.61141  Biso   1.000  C
  C78      1.0000 0.94630  0.55370  0.55370  Biso   1.000  C
  C79      1.0000 0.61141  0.88859  0.88859  Biso   1.000  C
  C80      1.0000 0.55370  0.94630  0.94630  Biso   1.000  C
  C81      1.0000 0.25000  0.25000  0.25000  Biso   1.000  C
  C82      1.0000 0.75000  0.75000  0.75000  Biso   1.000  C
  C83      1.0000 0.36605  0.36605  0.07321  Biso   1.000  C
  C84      1.0000 0.36605  0.36605  0.19469  Biso   1.000  C
  C85      1.0000 0.07321  0.19469  0.36605  Biso   1.000  C
  C86      1.0000 0.19469  0.07321  0.36605  Biso   1.000  C
  C87      1.0000 0.36605  0.07321  0.19469  Biso   1.000  C
  C88      1.0000 0.36605  0.19469  0.07321  Biso   1.000  C
  C89      1.0000 0.07321  0.36605  0.36605  Biso   1.000  C
  C90      1.0000 0.19469  0.36605  0.36605  Biso   1.000  C
  C91      1.0000 0.36605  0.19469  0.36605  Biso   1.000  C
  C92      1.0000 0.36605  0.07321  0.36605  Biso   1.000  C
  C93      1.0000 0.07321  0.36605  0.19469  Biso   1.000  C
  C94      1.0000 0.19469  0.36605  0.07321  Biso   1.000  C
  C95      1.0000 0.63395  0.63395  0.92679  Biso   1.000  C
  C96      1.0000 0.63395  0.63395  0.80531  Biso   1.000  C
  C97      1.0000 0.80531  0.92679  0.63395  Biso   1.000  C
  C98      1.0000 0.92679  0.80531  0.63395  Biso   1.000  C
  C99      1.0000 0.92679  0.63395  0.80531  Biso   1.000  C
  C100     1.0000 0.80531  0.63395  0.92679  Biso   1.000  C
  C101     1.0000 0.63395  0.92679  0.63395  Biso   1.000  C
  C102     1.0000 0.63395  0.80531  0.63395  Biso   1.000  C
  C103     1.0000 0.80531  0.63395  0.63395  Biso   1.000  C
  C104     1.0000 0.92679  0.63395  0.63395  Biso   1.000  C
  C105     1.0000 0.63395  0.92679  0.80531  Biso   1.000  C
  C106     1.0000 0.63395  0.80531  0.92679  Biso   1.000  C
  O1       1.0000 0.59666  0.07617  0.71974  Biso   1.000  O
  O2       1.0000 0.59666  0.25242  0.71974  Biso   1.000  O
  O3       1.0000 0.42040  0.25242  0.71974  Biso   1.000  O
  O4       1.0000 0.59666  0.25242  0.54349  Biso   1.000  O
  O5       1.0000 0.01754  0.66129  0.12861  Biso   1.000  O
  O6       1.0000 0.01754  0.83754  0.12861  Biso   1.000  O
  O7       1.0000 0.19379  0.66129  0.12861  Biso   1.000  O
  O8       1.0000 0.01754  0.66129  0.30486  Biso   1.000  O
  O9       1.0000 0.46316  0.89358  0.87778  Biso   1.000  O
  O10      1.0000 0.75470  0.41046  0.58624  Biso   1.000  O
  O11      1.0000 0.23781  0.11892  0.87778  Biso   1.000  O
  O12      1.0000 0.75470  0.41046  0.36090  Biso   1.000  O
  O13      1.0000 0.23781  0.41046  0.58624  Biso   1.000  O
  O14      1.0000 0.75470  0.11892  0.87778  Biso   1.000  O
  O15      1.0000 0.46316  0.41046  0.36090  Biso   1.000  O
  O16      1.0000 0.75470  0.89358  0.87778  Biso   1.000  O
  O17      1.0000 0.75470  0.11892  0.36090  Biso   1.000  O
  O18      1.0000 0.46316  0.41046  0.87778  Biso   1.000  O
  O19      1.0000 0.75470  0.89358  0.58624  Biso   1.000  O
  O20      1.0000 0.23781  0.41046  0.87778  Biso   1.000  O
  O21      1.0000 0.15103  0.50325  0.97057  Biso   1.000  O
  O22      1.0000 0.85949  0.02013  0.26211  Biso   1.000  O
  O23      1.0000 0.37638  0.50325  0.97057  Biso   1.000  O
  O24      1.0000 0.85949  0.79479  0.48745  Biso   1.000  O
  O25      1.0000 0.37638  0.50325  0.26211  Biso   1.000  O
  O26      1.0000 0.85949  0.02013  0.97057  Biso   1.000  O
  O27      1.0000 0.15103  0.50325  0.48745  Biso   1.000  O
  O28      1.0000 0.85949  0.79479  0.97057  Biso   1.000  O
  O29      1.0000 0.85949  0.50325  0.48745  Biso   1.000  O
  O30      1.0000 0.15103  0.02013  0.97057  Biso   1.000  O
  O31      1.0000 0.85949  0.50325  0.26211  Biso   1.000  O
  O32      1.0000 0.37638  0.79479  0.97057  Biso   1.000  O
  O33      1.0000 0.39354  0.91692  0.90092  Biso   1.000  O
  O34      1.0000 0.77784  0.43360  0.51663  Biso   1.000  O
  O35      1.0000 0.26115  0.04931  0.90092  Biso   1.000  O
  O36      1.0000 0.77784  0.43360  0.38424  Biso   1.000  O
  O37      1.0000 0.26115  0.43360  0.51663  Biso   1.000  O
  O38      1.0000 0.77784  0.04931  0.90092  Biso   1.000  O
  O39      1.0000 0.39354  0.43360  0.38424  Biso   1.000  O
  O40      1.0000 0.77784  0.91692  0.90092  Biso   1.000  O
  O41      1.0000 0.77784  0.04931  0.38424  Biso   1.000  O
  O42      1.0000 0.39354  0.43360  0.90092  Biso   1.000  O
  O43      1.0000 0.77784  0.91692  0.51663  Biso   1.000  O
  O44      1.0000 0.26115  0.43360  0.90092  Biso   1.000  O
  O45      1.0000 0.22065  0.48011  0.94743  Biso   1.000  O
  O46      1.0000 0.83635  0.99679  0.33172  Biso   1.000  O
  O47      1.0000 0.35304  0.48011  0.94743  Biso   1.000  O
  O48      1.0000 0.83635  0.86440  0.46411  Biso   1.000  O
  O49      1.0000 0.35304  0.48011  0.33172  Biso   1.000  O
  O50      1.0000 0.83635  0.99679  0.94743  Biso   1.000  O
  O51      1.0000 0.22065  0.48011  0.46411  Biso   1.000  O
  O52      1.0000 0.83635  0.86440  0.94743  Biso   1.000  O
  O53      1.0000 0.83635  0.48011  0.46411  Biso   1.000  O
  O54      1.0000 0.22065  0.99679  0.94743  Biso   1.000  O
  O55      1.0000 0.83635  0.48011  0.33172  Biso   1.000  O
  O56      1.0000 0.35304  0.86440  0.94743  Biso   1.000  O
  O57      1.0000 0.41024  0.06601  0.81803  Biso   1.000  O
  O58      1.0000 0.35642  0.01219  0.87185  Biso   1.000  O
  O59      1.0000 0.69494  0.35071  0.53333  Biso   1.000  O
  O60      1.0000 0.74876  0.40453  0.47951  Biso   1.000  O
  O61      1.0000 0.41024  0.35071  0.53333  Biso   1.000  O
  O62      1.0000 0.35642  0.40453  0.47951  Biso   1.000  O
  O63      1.0000 0.69494  0.06601  0.81803  Biso   1.000  O
  O64      1.0000 0.74876  0.01219  0.87185  Biso   1.000  O
  O65      1.0000 0.69494  0.06601  0.53333  Biso   1.000  O
  O66      1.0000 0.74876  0.01219  0.47951  Biso   1.000  O
  O67      1.0000 0.41024  0.35071  0.81803  Biso   1.000  O
  O68      1.0000 0.35642  0.40453  0.87185  Biso   1.000  O
  O69      1.0000 0.20395  0.56300  0.03033  Biso   1.000  O
  O70      1.0000 0.25777  0.50918  0.97650  Biso   1.000  O
  O71      1.0000 0.91925  0.84770  0.31502  Biso   1.000  O
  O72      1.0000 0.86543  0.90153  0.36885  Biso   1.000  O
  O73      1.0000 0.20395  0.56300  0.31502  Biso   1.000  O
  O74      1.0000 0.25777  0.50918  0.36885  Biso   1.000  O
  O75      1.0000 0.91925  0.84770  0.03033  Biso   1.000  O
  O76      1.0000 0.86543  0.90153  0.97650  Biso   1.000  O
  O77      1.0000 0.91925  0.56300  0.31502  Biso   1.000  O
  O78      1.0000 0.86543  0.50918  0.36885  Biso   1.000  O
  O79      1.0000 0.20395  0.84770  0.03033  Biso   1.000  O
  O80      1.0000 0.25777  0.90153  0.97650  Biso   1.000  O
  O81      1.0000 0.55259  0.20836  0.67568  Biso   1.000  O
  O82      1.0000 0.06160  0.70535  0.17268  Biso   1.000  O
  O83      1.0000 0.49736  0.02999  0.79247  Biso   1.000  O
  O84      1.0000 0.66939  0.32515  0.62045  Biso   1.000  O
  O85      1.0000 0.37423  0.15313  0.79247  Biso   1.000  O
  O86      1.0000 0.66939  0.32515  0.49731  Biso   1.000  O
  O87      1.0000 0.37423  0.32515  0.62045  Biso   1.000  O
  O88      1.0000 0.66939  0.15313  0.79247  Biso   1.000  O
  O89      1.0000 0.49736  0.32515  0.49731  Biso   1.000  O
  O90      1.0000 0.66939  0.02999  0.79247  Biso   1.000  O
  O91      1.0000 0.66939  0.15313  0.49731  Biso   1.000  O
  O92      1.0000 0.49736  0.32515  0.79247  Biso   1.000  O
  O93      1.0000 0.66939  0.02999  0.62045  Biso   1.000  O
  O94      1.0000 0.37423  0.32515  0.79247  Biso   1.000  O
  O95      1.0000 0.11683  0.58856  0.05588  Biso   1.000  O
  O96      1.0000 0.94480  0.88372  0.22790  Biso   1.000  O
  O97      1.0000 0.23996  0.58856  0.05588  Biso   1.000  O
  O98      1.0000 0.94480  0.76058  0.35104  Biso   1.000  O
  O99      1.0000 0.23996  0.58856  0.22790  Biso   1.000  O
  O100     1.0000 0.94480  0.88372  0.05588  Biso   1.000  O
  O101     1.0000 0.11683  0.58856  0.35104  Biso   1.000  O
  O102     1.0000 0.94480  0.76058  0.05588  Biso   1.000  O
  O103     1.0000 0.94480  0.58856  0.35104  Biso   1.000  O
  O104     1.0000 0.11683  0.88372  0.05588  Biso   1.000  O
  O105     1.0000 0.94480  0.58856  0.22790  Biso   1.000  O
  O106     1.0000 0.23996  0.76058  0.05588  Biso   1.000  O
