data_image0
_cell_length_a       18.2115
_cell_length_b       18.2115
_cell_length_c       18.2115
_cell_angle_alpha    60
_cell_angle_beta     60
_cell_angle_gamma    60

_symmetry_space_group_name_H-M    "P 1"
_symmetry_int_tables_number       1

loop_
  _symmetry_equiv_pos_as_xyz
  'x, y, z'

loop_
  _atom_site_label
  _atom_site_occupancy
  _atom_site_fract_x
  _atom_site_fract_y
  _atom_site_fract_z
  _atom_site_thermal_displace_type
  _atom_site_B_iso_or_equiv
  _atom_site_type_symbol
  Zn1      1.0000 0.29361  0.29361  0.11917  Biso   1.000  Zn
  Zn2      1.0000 0.29361  0.29361  0.29361  Biso   1.000  Zn
  Zn3      1.0000 0.11917  0.29361  0.29361  Biso   1.000  Zn
  Zn4      1.0000 0.29361  0.11917  0.29361  Biso   1.000  Zn
  Zn5      1.0000 0.70639  0.70639  0.88083  Biso   1.000  Zn
  Zn6      1.0000 0.70639  0.70639  0.70639  Biso   1.000  Zn
  Zn7      1.0000 0.70639  0.88083  0.70639  Biso   1.000  Zn
  Zn8      1.0000 0.88083  0.70639  0.70639  Biso   1.000  Zn
  H1       1.0000 0.45530  0.45530  0.93770  Biso   1.000  H
  H2       1.0000 0.45530  0.45530  0.15170  Biso   1.000  H
  H3       1.0000 0.93770  0.15170  0.45530  Biso   1.000  H
  H4       1.0000 0.15170  0.93770  0.45530  Biso   1.000  H
  H5       1.0000 0.45530  0.93770  0.15170  Biso   1.000  H
  H6       1.0000 0.45530  0.15170  0.93770  Biso   1.000  H
  H7       1.0000 0.93770  0.45530  0.45530  Biso   1.000  H
  H8       1.0000 0.15170  0.45530  0.45530  Biso   1.000  H
  H9       1.0000 0.45530  0.15170  0.45530  Biso   1.000  H
  H10      1.0000 0.45530  0.93770  0.45530  Biso   1.000  H
  H11      1.0000 0.93770  0.45530  0.15170  Biso   1.000  H
  H12      1.0000 0.15170  0.45530  0.93770  Biso   1.000  H
  H13      1.0000 0.54470  0.54470  0.06230  Biso   1.000  H
  H14      1.0000 0.54470  0.54470  0.84830  Biso   1.000  H
  H15      1.0000 0.84830  0.06230  0.54470  Biso   1.000  H
  H16      1.0000 0.06230  0.84830  0.54470  Biso   1.000  H
  H17      1.0000 0.06230  0.54470  0.84830  Biso   1.000  H
  H18      1.0000 0.84830  0.54470  0.06230  Biso   1.000  H
  H19      1.0000 0.54470  0.06230  0.54470  Biso   1.000  H
  H20      1.0000 0.54470  0.84830  0.54470  Biso   1.000  H
  H21      1.0000 0.84830  0.54470  0.54470  Biso   1.000  H
  H22      1.0000 0.06230  0.54470  0.54470  Biso   1.000  H
  H23      1.0000 0.54470  0.06230  0.84830  Biso   1.000  H
  H24      1.0000 0.54470  0.84830  0.06230  Biso   1.000  H
  C1       1.0000 0.47300  0.47300  0.96450  Biso   1.000  C
  C2       1.0000 0.47300  0.47300  0.08950  Biso   1.000  C
  C3       1.0000 0.96450  0.08950  0.47300  Biso   1.000  C
  C4       1.0000 0.08950  0.96450  0.47300  Biso   1.000  C
  C5       1.0000 0.47300  0.96450  0.08950  Biso   1.000  C
  C6       1.0000 0.47300  0.08950  0.96450  Biso   1.000  C
  C7       1.0000 0.96450  0.47300  0.47300  Biso   1.000  C
  C8       1.0000 0.08950  0.47300  0.47300  Biso   1.000  C
  C9       1.0000 0.47300  0.08950  0.47300  Biso   1.000  C
  C10      1.0000 0.47300  0.96450  0.47300  Biso   1.000  C
  C11      1.0000 0.96450  0.47300  0.08950  Biso   1.000  C
  C12      1.0000 0.08950  0.47300  0.96450  Biso   1.000  C
  C13      1.0000 0.52700  0.52700  0.03550  Biso   1.000  C
  C14      1.0000 0.52700  0.52700  0.91050  Biso   1.000  C
  C15      1.0000 0.91050  0.03550  0.52700  Biso   1.000  C
  C16      1.0000 0.03550  0.91050  0.52700  Biso   1.000  C
  C17      1.0000 0.03550  0.52700  0.91050  Biso   1.000  C
  C18      1.0000 0.91050  0.52700  0.03550  Biso   1.000  C
  C19      1.0000 0.52700  0.03550  0.52700  Biso   1.000  C
  C20      1.0000 0.52700  0.91050  0.52700  Biso   1.000  C
  C21      1.0000 0.91050  0.52700  0.52700  Biso   1.000  C
  C22      1.0000 0.03550  0.52700  0.52700  Biso   1.000  C
  C23      1.0000 0.52700  0.03550  0.91050  Biso   1.000  C
  C24      1.0000 0.52700  0.91050  0.03550  Biso   1.000  C
  C25      1.0000 0.38860  0.38860  0.11140  Biso   1.000  C
  C26      1.0000 0.44600  0.44600  0.05400  Biso   1.000  C
  C27      1.0000 0.11140  0.11140  0.38860  Biso   1.000  C
  C28      1.0000 0.05400  0.05400  0.44600  Biso   1.000  C
  C29      1.0000 0.38860  0.11140  0.11140  Biso   1.000  C
  C30      1.0000 0.44600  0.05400  0.05400  Biso   1.000  C
  C31      1.0000 0.11140  0.38860  0.38860  Biso   1.000  C
  C32      1.0000 0.05400  0.44600  0.44600  Biso   1.000  C
  C33      1.0000 0.38860  0.11140  0.38860  Biso   1.000  C
  C34      1.0000 0.44600  0.05400  0.44600  Biso   1.000  C
  C35      1.0000 0.11140  0.38860  0.11140  Biso   1.000  C
  C36      1.0000 0.05400  0.44600  0.05400  Biso   1.000  C
  C37      1.0000 0.61140  0.61140  0.88860  Biso   1.000  C
  C38      1.0000 0.55400  0.55400  0.94600  Biso   1.000  C
  C39      1.0000 0.88860  0.88860  0.61140  Biso   1.000  C
  C40      1.0000 0.94600  0.94600  0.55400  Biso   1.000  C
  C41      1.0000 0.88860  0.61140  0.88860  Biso   1.000  C
  C42      1.0000 0.94600  0.55400  0.94600  Biso   1.000  C
  C43      1.0000 0.61140  0.88860  0.61140  Biso   1.000  C
  C44      1.0000 0.55400  0.94600  0.55400  Biso   1.000  C
  C45      1.0000 0.88860  0.61140  0.61140  Biso   1.000  C
  C46      1.0000 0.94600  0.55400  0.55400  Biso   1.000  C
  C47      1.0000 0.61140  0.88860  0.88860  Biso   1.000  C
  C48      1.0000 0.55400  0.94600  0.94600  Biso   1.000  C
  O1       1.0000 0.25000  0.25000  0.25000  Biso   1.000  O
  O2       1.0000 0.75000  0.75000  0.75000  Biso   1.000  O
  O3       1.0000 0.36611  0.36611  0.07317  Biso   1.000  O
  O4       1.0000 0.36611  0.36611  0.19461  Biso   1.000  O
  O5       1.0000 0.07317  0.19461  0.36611  Biso   1.000  O
  O6       1.0000 0.19461  0.07317  0.36611  Biso   1.000  O
  O7       1.0000 0.36611  0.07317  0.19461  Biso   1.000  O
  O8       1.0000 0.36611  0.19461  0.07317  Biso   1.000  O
  O9       1.0000 0.07317  0.36611  0.36611  Biso   1.000  O
  O10      1.0000 0.19461  0.36611  0.36611  Biso   1.000  O
  O11      1.0000 0.36611  0.19461  0.36611  Biso   1.000  O
  O12      1.0000 0.36611  0.07317  0.36611  Biso   1.000  O
  O13      1.0000 0.07317  0.36611  0.19461  Biso   1.000  O
  O14      1.0000 0.19461  0.36611  0.07317  Biso   1.000  O
  O15      1.0000 0.63389  0.63389  0.92683  Biso   1.000  O
  O16      1.0000 0.63389  0.63389  0.80539  Biso   1.000  O
  O17      1.0000 0.80539  0.92683  0.63389  Biso   1.000  O
  O18      1.0000 0.92683  0.80539  0.63389  Biso   1.000  O
  O19      1.0000 0.92683  0.63389  0.80539  Biso   1.000  O
  O20      1.0000 0.80539  0.63389  0.92683  Biso   1.000  O
  O21      1.0000 0.63389  0.92683  0.63389  Biso   1.000  O
  O22      1.0000 0.63389  0.80539  0.63389  Biso   1.000  O
  O23      1.0000 0.80539  0.63389  0.63389  Biso   1.000  O
  O24      1.0000 0.92683  0.63389  0.63389  Biso   1.000  O
  O25      1.0000 0.63389  0.92683  0.80539  Biso   1.000  O
  O26      1.0000 0.63389  0.80539  0.92683  Biso   1.000  O
  Zn9      1.0000 0.89167  0.75925  0.43417  Biso   1.000  Zn
  Zn10     1.0000 0.06611  0.75925  0.25973  Biso   1.000  Zn
  Zn11     1.0000 0.89167  0.75925  0.25973  Biso   1.000  Zn
  Zn12     1.0000 0.89167  0.93369  0.25973  Biso   1.000  Zn
  Zn13     1.0000 0.47889  0.34647  0.67251  Biso   1.000  Zn
  Zn14     1.0000 0.30445  0.34647  0.84695  Biso   1.000  Zn
  Zn15     1.0000 0.47889  0.17203  0.84695  Biso   1.000  Zn
  Zn16     1.0000 0.47889  0.34647  0.84695  Biso   1.000  Zn
  H25      1.0000 0.03358  0.59756  0.61564  Biso   1.000  H
  H26      1.0000 0.24758  0.59756  0.40164  Biso   1.000  H
  H27      1.0000 0.72998  0.90116  0.09804  Biso   1.000  H
  H28      1.0000 0.72998  0.11516  0.09804  Biso   1.000  H
  H29      1.0000 0.72998  0.11516  0.40164  Biso   1.000  H
  H30      1.0000 0.72998  0.90116  0.61564  Biso   1.000  H
  H31      1.0000 0.03358  0.59756  0.09804  Biso   1.000  H
  H32      1.0000 0.24758  0.59756  0.09804  Biso   1.000  H
  H33      1.0000 0.24758  0.90116  0.09804  Biso   1.000  H
  H34      1.0000 0.03358  0.11516  0.09804  Biso   1.000  H
  H35      1.0000 0.72998  0.59756  0.40164  Biso   1.000  H
  H36      1.0000 0.72998  0.59756  0.61564  Biso   1.000  H
  H37      1.0000 0.33698  0.50816  0.49104  Biso   1.000  H
  H38      1.0000 0.12298  0.50816  0.70504  Biso   1.000  H
  H39      1.0000 0.64058  0.99056  0.00864  Biso   1.000  H
  H40      1.0000 0.64058  0.20456  0.00864  Biso   1.000  H
  H41      1.0000 0.64058  0.50816  0.70504  Biso   1.000  H
  H42      1.0000 0.64058  0.50816  0.49104  Biso   1.000  H
  H43      1.0000 0.33698  0.99056  0.00864  Biso   1.000  H
  H44      1.0000 0.12298  0.20456  0.00864  Biso   1.000  H
  H45      1.0000 0.12298  0.50816  0.00864  Biso   1.000  H
  H46      1.0000 0.33698  0.50816  0.00864  Biso   1.000  H
  H47      1.0000 0.64058  0.99056  0.70504  Biso   1.000  H
  H48      1.0000 0.64058  0.20456  0.49104  Biso   1.000  H
  C49      1.0000 0.09578  0.57986  0.58884  Biso   1.000  C
  C50      1.0000 0.22078  0.57986  0.46384  Biso   1.000  C
  C51      1.0000 0.71228  0.96336  0.08034  Biso   1.000  C
  C52      1.0000 0.71228  0.08836  0.08034  Biso   1.000  C
  C53      1.0000 0.71228  0.08836  0.46384  Biso   1.000  C
  C54      1.0000 0.71228  0.96336  0.58884  Biso   1.000  C
  C55      1.0000 0.09578  0.57986  0.08034  Biso   1.000  C
  C56      1.0000 0.22078  0.57986  0.08034  Biso   1.000  C
  C57      1.0000 0.22078  0.96336  0.08034  Biso   1.000  C
  C58      1.0000 0.09578  0.08836  0.08034  Biso   1.000  C
  C59      1.0000 0.71228  0.57986  0.46384  Biso   1.000  C
  C60      1.0000 0.71228  0.57986  0.58884  Biso   1.000  C
  C61      1.0000 0.27478  0.52586  0.51784  Biso   1.000  C
  C62      1.0000 0.14978  0.52586  0.64284  Biso   1.000  C
  C63      1.0000 0.65828  0.01736  0.02634  Biso   1.000  C
  C64      1.0000 0.65828  0.14236  0.02634  Biso   1.000  C
  C65      1.0000 0.65828  0.52586  0.64284  Biso   1.000  C
  C66      1.0000 0.65828  0.52586  0.51784  Biso   1.000  C
  C67      1.0000 0.27478  0.01736  0.02634  Biso   1.000  C
  C68      1.0000 0.14978  0.14236  0.02634  Biso   1.000  C
  C69      1.0000 0.14978  0.52586  0.02634  Biso   1.000  C
  C70      1.0000 0.27478  0.52586  0.02634  Biso   1.000  C
  C71      1.0000 0.65828  0.01736  0.64284  Biso   1.000  C
  C72      1.0000 0.65828  0.14236  0.51784  Biso   1.000  C
  C73      1.0000 0.07388  0.66426  0.44194  Biso   1.000  C
  C74      1.0000 0.13128  0.60686  0.49934  Biso   1.000  C
  C75      1.0000 0.79668  0.94146  0.16474  Biso   1.000  C
  C76      1.0000 0.73928  0.99886  0.10734  Biso   1.000  C
  C77      1.0000 0.79668  0.94146  0.44194  Biso   1.000  C
  C78      1.0000 0.73928  0.99886  0.49934  Biso   1.000  C
  C79      1.0000 0.07388  0.66426  0.16474  Biso   1.000  C
  C80      1.0000 0.13128  0.60686  0.10734  Biso   1.000  C
  C81      1.0000 0.07388  0.94146  0.16474  Biso   1.000  C
  C82      1.0000 0.13128  0.99886  0.10734  Biso   1.000  C
  C83      1.0000 0.79668  0.66426  0.44194  Biso   1.000  C
  C84      1.0000 0.73928  0.60686  0.49934  Biso   1.000  C
  C85      1.0000 0.29668  0.44146  0.66474  Biso   1.000  C
  C86      1.0000 0.23928  0.49886  0.60734  Biso   1.000  C
  C87      1.0000 0.57388  0.16426  0.94194  Biso   1.000  C
  C88      1.0000 0.63128  0.10686  0.99934  Biso   1.000  C
  C89      1.0000 0.57388  0.44146  0.66474  Biso   1.000  C
  C90      1.0000 0.63128  0.49886  0.60734  Biso   1.000  C
  C91      1.0000 0.29668  0.16426  0.94194  Biso   1.000  C
  C92      1.0000 0.23928  0.10686  0.99934  Biso   1.000  C
  C93      1.0000 0.29668  0.44146  0.94194  Biso   1.000  C
  C94      1.0000 0.23928  0.49886  0.99934  Biso   1.000  C
  C95      1.0000 0.57388  0.16426  0.66474  Biso   1.000  C
  C96      1.0000 0.63128  0.10686  0.60734  Biso   1.000  C
  O27      1.0000 0.93528  0.80286  0.30334  Biso   1.000  O
  O28      1.0000 0.43528  0.30286  0.80334  Biso   1.000  O
  O29      1.0000 0.99067  0.68675  0.48017  Biso   1.000  O
  O30      1.0000 0.11211  0.68675  0.35873  Biso   1.000  O
  O31      1.0000 0.81917  0.85825  0.18723  Biso   1.000  O
  O32      1.0000 0.81917  0.97969  0.18723  Biso   1.000  O
  O33      1.0000 0.81917  0.97969  0.35873  Biso   1.000  O
  O34      1.0000 0.81917  0.85825  0.48017  Biso   1.000  O
  O35      1.0000 0.99067  0.68675  0.18723  Biso   1.000  O
  O36      1.0000 0.11211  0.68675  0.18723  Biso   1.000  O
  O37      1.0000 0.11211  0.85825  0.18723  Biso   1.000  O
  O38      1.0000 0.99067  0.97969  0.18723  Biso   1.000  O
  O39      1.0000 0.81917  0.68675  0.35873  Biso   1.000  O
  O40      1.0000 0.81917  0.68675  0.48017  Biso   1.000  O
  O41      1.0000 0.37989  0.41897  0.62651  Biso   1.000  O
  O42      1.0000 0.25845  0.41897  0.74795  Biso   1.000  O
  O43      1.0000 0.55139  0.12603  0.91945  Biso   1.000  O
  O44      1.0000 0.55139  0.24747  0.91945  Biso   1.000  O
  O45      1.0000 0.55139  0.41897  0.74795  Biso   1.000  O
  O46      1.0000 0.55139  0.41897  0.62651  Biso   1.000  O
  O47      1.0000 0.37989  0.12603  0.91945  Biso   1.000  O
  O48      1.0000 0.25845  0.24747  0.91945  Biso   1.000  O
  O49      1.0000 0.25845  0.41897  0.91945  Biso   1.000  O
  O50      1.0000 0.37989  0.41897  0.91945  Biso   1.000  O
  O51      1.0000 0.55139  0.12603  0.74795  Biso   1.000  O
  O52      1.0000 0.55139  0.24747  0.62651  Biso   1.000  O
