data_image0
_cell_length_a       18.2205
_cell_length_b       18.2205
_cell_length_c       18.2205
_cell_angle_alpha    60
_cell_angle_beta     60
_cell_angle_gamma    60

_symmetry_space_group_name_H-M    "P 1"
_symmetry_int_tables_number       1

loop_
  _symmetry_equiv_pos_as_xyz
  'x, y, z'

loop_
  _atom_site_label
  _atom_site_occupancy
  _atom_site_fract_x
  _atom_site_fract_y
  _atom_site_fract_z
  _atom_site_thermal_displace_type
  _atom_site_B_iso_or_equiv
  _atom_site_type_symbol
  Zn1      1.0000 0.29361  0.29361  0.11917  Biso   1.000  Zn
  Zn2      1.0000 0.29361  0.29361  0.29361  Biso   1.000  Zn
  Zn3      1.0000 0.11917  0.29361  0.29361  Biso   1.000  Zn
  Zn4      1.0000 0.29361  0.11917  0.29361  Biso   1.000  Zn
  Zn5      1.0000 0.70639  0.70639  0.88083  Biso   1.000  Zn
  Zn6      1.0000 0.70639  0.70639  0.70639  Biso   1.000  Zn
  Zn7      1.0000 0.70639  0.88083  0.70639  Biso   1.000  Zn
  Zn8      1.0000 0.88083  0.70639  0.70639  Biso   1.000  Zn
  H1       1.0000 0.45580  0.45580  0.93700  Biso   1.000  H
  H2       1.0000 0.45580  0.45580  0.15140  Biso   1.000  H
  H3       1.0000 0.93700  0.15140  0.45580  Biso   1.000  H
  H4       1.0000 0.15140  0.93700  0.45580  Biso   1.000  H
  H5       1.0000 0.45580  0.93700  0.15140  Biso   1.000  H
  H6       1.0000 0.45580  0.15140  0.93700  Biso   1.000  H
  H7       1.0000 0.93700  0.45580  0.45580  Biso   1.000  H
  H8       1.0000 0.15140  0.45580  0.45580  Biso   1.000  H
  H9       1.0000 0.45580  0.15140  0.45580  Biso   1.000  H
  H10      1.0000 0.45580  0.93700  0.45580  Biso   1.000  H
  H11      1.0000 0.93700  0.45580  0.15140  Biso   1.000  H
  H12      1.0000 0.15140  0.45580  0.93700  Biso   1.000  H
  H13      1.0000 0.54420  0.54420  0.06300  Biso   1.000  H
  H14      1.0000 0.54420  0.54420  0.84860  Biso   1.000  H
  H15      1.0000 0.84860  0.06300  0.54420  Biso   1.000  H
  H16      1.0000 0.06300  0.84860  0.54420  Biso   1.000  H
  H17      1.0000 0.06300  0.54420  0.84860  Biso   1.000  H
  H18      1.0000 0.84860  0.54420  0.06300  Biso   1.000  H
  H19      1.0000 0.54420  0.06300  0.54420  Biso   1.000  H
  H20      1.0000 0.54420  0.84860  0.54420  Biso   1.000  H
  H21      1.0000 0.84860  0.54420  0.54420  Biso   1.000  H
  H22      1.0000 0.06300  0.54420  0.54420  Biso   1.000  H
  H23      1.0000 0.54420  0.06300  0.84860  Biso   1.000  H
  H24      1.0000 0.54420  0.84860  0.06300  Biso   1.000  H
  C1       1.0000 0.47350  0.47350  0.96390  Biso   1.000  C
  C2       1.0000 0.47350  0.47350  0.08910  Biso   1.000  C
  C3       1.0000 0.96390  0.08910  0.47350  Biso   1.000  C
  C4       1.0000 0.08910  0.96390  0.47350  Biso   1.000  C
  C5       1.0000 0.47350  0.96390  0.08910  Biso   1.000  C
  C6       1.0000 0.47350  0.08910  0.96390  Biso   1.000  C
  C7       1.0000 0.96390  0.47350  0.47350  Biso   1.000  C
  C8       1.0000 0.08910  0.47350  0.47350  Biso   1.000  C
  C9       1.0000 0.47350  0.08910  0.47350  Biso   1.000  C
  C10      1.0000 0.47350  0.96390  0.47350  Biso   1.000  C
  C11      1.0000 0.96390  0.47350  0.08910  Biso   1.000  C
  C12      1.0000 0.08910  0.47350  0.96390  Biso   1.000  C
  C13      1.0000 0.52650  0.52650  0.03610  Biso   1.000  C
  C14      1.0000 0.52650  0.52650  0.91090  Biso   1.000  C
  C15      1.0000 0.91090  0.03610  0.52650  Biso   1.000  C
  C16      1.0000 0.03610  0.91090  0.52650  Biso   1.000  C
  C17      1.0000 0.03610  0.52650  0.91090  Biso   1.000  C
  C18      1.0000 0.91090  0.52650  0.03610  Biso   1.000  C
  C19      1.0000 0.52650  0.03610  0.52650  Biso   1.000  C
  C20      1.0000 0.52650  0.91090  0.52650  Biso   1.000  C
  C21      1.0000 0.91090  0.52650  0.52650  Biso   1.000  C
  C22      1.0000 0.03610  0.52650  0.52650  Biso   1.000  C
  C23      1.0000 0.52650  0.03610  0.91090  Biso   1.000  C
  C24      1.0000 0.52650  0.91090  0.03610  Biso   1.000  C
  C25      1.0000 0.38850  0.38850  0.11150  Biso   1.000  C
  C26      1.0000 0.44660  0.44660  0.05340  Biso   1.000  C
  C27      1.0000 0.11150  0.11150  0.38850  Biso   1.000  C
  C28      1.0000 0.05340  0.05340  0.44660  Biso   1.000  C
  C29      1.0000 0.38850  0.11150  0.11150  Biso   1.000  C
  C30      1.0000 0.44660  0.05340  0.05340  Biso   1.000  C
  C31      1.0000 0.11150  0.38850  0.38850  Biso   1.000  C
  C32      1.0000 0.05340  0.44660  0.44660  Biso   1.000  C
  C33      1.0000 0.38850  0.11150  0.38850  Biso   1.000  C
  C34      1.0000 0.44660  0.05340  0.44660  Biso   1.000  C
  C35      1.0000 0.11150  0.38850  0.11150  Biso   1.000  C
  C36      1.0000 0.05340  0.44660  0.05340  Biso   1.000  C
  C37      1.0000 0.61150  0.61150  0.88850  Biso   1.000  C
  C38      1.0000 0.55340  0.55340  0.94660  Biso   1.000  C
  C39      1.0000 0.88850  0.88850  0.61150  Biso   1.000  C
  C40      1.0000 0.94660  0.94660  0.55340  Biso   1.000  C
  C41      1.0000 0.88850  0.61150  0.88850  Biso   1.000  C
  C42      1.0000 0.94660  0.55340  0.94660  Biso   1.000  C
  C43      1.0000 0.61150  0.88850  0.61150  Biso   1.000  C
  C44      1.0000 0.55340  0.94660  0.55340  Biso   1.000  C
  C45      1.0000 0.88850  0.61150  0.61150  Biso   1.000  C
  C46      1.0000 0.94660  0.55340  0.55340  Biso   1.000  C
  C47      1.0000 0.61150  0.88850  0.88850  Biso   1.000  C
  C48      1.0000 0.55340  0.94660  0.94660  Biso   1.000  C
  O1       1.0000 0.25000  0.25000  0.25000  Biso   1.000  O
  O2       1.0000 0.75000  0.75000  0.75000  Biso   1.000  O
  O3       1.0000 0.36609  0.36609  0.07351  Biso   1.000  O
  O4       1.0000 0.36609  0.36609  0.19431  Biso   1.000  O
  O5       1.0000 0.07351  0.19431  0.36609  Biso   1.000  O
  O6       1.0000 0.19431  0.07351  0.36609  Biso   1.000  O
  O7       1.0000 0.36609  0.07351  0.19431  Biso   1.000  O
  O8       1.0000 0.36609  0.19431  0.07351  Biso   1.000  O
  O9       1.0000 0.07351  0.36609  0.36609  Biso   1.000  O
  O10      1.0000 0.19431  0.36609  0.36609  Biso   1.000  O
  O11      1.0000 0.36609  0.19431  0.36609  Biso   1.000  O
  O12      1.0000 0.36609  0.07351  0.36609  Biso   1.000  O
  O13      1.0000 0.07351  0.36609  0.19431  Biso   1.000  O
  O14      1.0000 0.19431  0.36609  0.07351  Biso   1.000  O
  O15      1.0000 0.63391  0.63391  0.92649  Biso   1.000  O
  O16      1.0000 0.63391  0.63391  0.80569  Biso   1.000  O
  O17      1.0000 0.80569  0.92649  0.63391  Biso   1.000  O
  O18      1.0000 0.92649  0.80569  0.63391  Biso   1.000  O
  O19      1.0000 0.92649  0.63391  0.80569  Biso   1.000  O
  O20      1.0000 0.80569  0.63391  0.92649  Biso   1.000  O
  O21      1.0000 0.63391  0.92649  0.63391  Biso   1.000  O
  O22      1.0000 0.63391  0.80569  0.63391  Biso   1.000  O
  O23      1.0000 0.80569  0.63391  0.63391  Biso   1.000  O
  O24      1.0000 0.92649  0.63391  0.63391  Biso   1.000  O
  O25      1.0000 0.63391  0.92649  0.80569  Biso   1.000  O
  O26      1.0000 0.63391  0.80569  0.92649  Biso   1.000  O
  Zn9      1.0000 0.52307  0.16636  0.65121  Biso   1.000  Zn
  Zn10     1.0000 0.52307  0.34075  0.65121  Biso   1.000  Zn
  Zn11     1.0000 0.34868  0.34075  0.65121  Biso   1.000  Zn
  Zn12     1.0000 0.52307  0.34075  0.47682  Biso   1.000  Zn
  Zn13     1.0000 0.94619  0.75012  0.06058  Biso   1.000  Zn
  Zn14     1.0000 0.94619  0.92451  0.06058  Biso   1.000  Zn
  Zn15     1.0000 0.12058  0.75012  0.06058  Biso   1.000  Zn
  Zn16     1.0000 0.94619  0.75012  0.23497  Biso   1.000  Zn
  H25      1.0000 0.39148  0.98120  0.80959  Biso   1.000  H
  H26      1.0000 0.68146  0.49913  0.51961  Biso   1.000  H
  H27      1.0000 0.16352  0.20915  0.80959  Biso   1.000  H
  H28      1.0000 0.68146  0.49913  0.29165  Biso   1.000  H
  H29      1.0000 0.16352  0.49913  0.51961  Biso   1.000  H
  H30      1.0000 0.68146  0.20915  0.80959  Biso   1.000  H
  H31      1.0000 0.39148  0.49913  0.29165  Biso   1.000  H
  H32      1.0000 0.68146  0.98120  0.80959  Biso   1.000  H
  H33      1.0000 0.68146  0.20915  0.29165  Biso   1.000  H
  H34      1.0000 0.39148  0.49913  0.80959  Biso   1.000  H
  H35      1.0000 0.68146  0.98120  0.51961  Biso   1.000  H
  H36      1.0000 0.16352  0.49913  0.80959  Biso   1.000  H
  H37      1.0000 0.07779  0.59174  0.90220  Biso   1.000  H
  H38      1.0000 0.78781  0.10967  0.19217  Biso   1.000  H
  H39      1.0000 0.30574  0.59174  0.90220  Biso   1.000  H
  H40      1.0000 0.78781  0.88172  0.42013  Biso   1.000  H
  H41      1.0000 0.30574  0.59174  0.19217  Biso   1.000  H
  H42      1.0000 0.78781  0.10968  0.90220  Biso   1.000  H
  H43      1.0000 0.07779  0.59174  0.42013  Biso   1.000  H
  H44      1.0000 0.78781  0.88172  0.90220  Biso   1.000  H
  H45      1.0000 0.78781  0.59174  0.42013  Biso   1.000  H
  H46      1.0000 0.07779  0.10968  0.90220  Biso   1.000  H
  H47      1.0000 0.78781  0.59174  0.19217  Biso   1.000  H
  H48      1.0000 0.30574  0.88172  0.90220  Biso   1.000  H
  C49      1.0000 0.32059  0.00697  0.83214  Biso   1.000  C
  C50      1.0000 0.70401  0.52169  0.44873  Biso   1.000  C
  C51      1.0000 0.18930  0.13827  0.83214  Biso   1.000  C
  C52      1.0000 0.70401  0.52169  0.31743  Biso   1.000  C
  C53      1.0000 0.18930  0.52169  0.44873  Biso   1.000  C
  C54      1.0000 0.70401  0.13827  0.83214  Biso   1.000  C
  C55      1.0000 0.32059  0.52169  0.31743  Biso   1.000  C
  C56      1.0000 0.70401  0.00697  0.83214  Biso   1.000  C
  C57      1.0000 0.70401  0.13827  0.31743  Biso   1.000  C
  C58      1.0000 0.32059  0.52169  0.83214  Biso   1.000  C
  C59      1.0000 0.70401  0.00697  0.44873  Biso   1.000  C
  C60      1.0000 0.18930  0.52169  0.83214  Biso   1.000  C
  C61      1.0000 0.14867  0.56919  0.87964  Biso   1.000  C
  C62      1.0000 0.76525  0.08390  0.26306  Biso   1.000  C
  C63      1.0000 0.27997  0.56919  0.87964  Biso   1.000  C
  C64      1.0000 0.76525  0.95260  0.39435  Biso   1.000  C
  C65      1.0000 0.27997  0.56919  0.26306  Biso   1.000  C
  C66      1.0000 0.76525  0.08390  0.87964  Biso   1.000  C
  C67      1.0000 0.14867  0.56919  0.39435  Biso   1.000  C
  C68      1.0000 0.76525  0.95260  0.87964  Biso   1.000  C
  C69      1.0000 0.76525  0.56919  0.39435  Biso   1.000  C
  C70      1.0000 0.14867  0.08390  0.87964  Biso   1.000  C
  C71      1.0000 0.76525  0.56919  0.26306  Biso   1.000  C
  C72      1.0000 0.27997  0.95260  0.87964  Biso   1.000  C
  C73      1.0000 0.33922  0.15690  0.74787  Biso   1.000  C
  C74      1.0000 0.28233  0.10001  0.80476  Biso   1.000  C
  C75      1.0000 0.61973  0.43741  0.46735  Biso   1.000  C
  C76      1.0000 0.67662  0.49430  0.41046  Biso   1.000  C
  C77      1.0000 0.33922  0.43741  0.46735  Biso   1.000  C
  C78      1.0000 0.28233  0.49430  0.41046  Biso   1.000  C
  C79      1.0000 0.61973  0.15690  0.74787  Biso   1.000  C
  C80      1.0000 0.67662  0.10001  0.80476  Biso   1.000  C
  C81      1.0000 0.61973  0.15690  0.46735  Biso   1.000  C
  C82      1.0000 0.67662  0.10001  0.41046  Biso   1.000  C
  C83      1.0000 0.33922  0.43741  0.74787  Biso   1.000  C
  C84      1.0000 0.28233  0.49430  0.80476  Biso   1.000  C
  C85      1.0000 0.13004  0.65346  0.96392  Biso   1.000  C
  C86      1.0000 0.18693  0.59657  0.90703  Biso   1.000  C
  C87      1.0000 0.84953  0.93398  0.24443  Biso   1.000  C
  C88      1.0000 0.79264  0.99086  0.30132  Biso   1.000  C
  C89      1.0000 0.13004  0.65346  0.24443  Biso   1.000  C
  C90      1.0000 0.18693  0.59657  0.30132  Biso   1.000  C
  C91      1.0000 0.84953  0.93398  0.96392  Biso   1.000  C
  C92      1.0000 0.79264  0.99086  0.90703  Biso   1.000  C
  C93      1.0000 0.84953  0.65346  0.24443  Biso   1.000  C
  C94      1.0000 0.79264  0.59657  0.30132  Biso   1.000  C
  C95      1.0000 0.13004  0.93398  0.96392  Biso   1.000  C
  C96      1.0000 0.18693  0.99086  0.90703  Biso   1.000  C
  O27      1.0000 0.47948  0.29715  0.60761  Biso   1.000  O
  O28      1.0000 0.98978  0.79372  0.10417  Biso   1.000  O
  O29      1.0000 0.42440  0.11924  0.72411  Biso   1.000  O
  O30      1.0000 0.59597  0.41365  0.55253  Biso   1.000  O
  O31      1.0000 0.30156  0.24208  0.72411  Biso   1.000  O
  O32      1.0000 0.59597  0.41365  0.42970  Biso   1.000  O
  O33      1.0000 0.30156  0.41365  0.55253  Biso   1.000  O
  O34      1.0000 0.59597  0.24208  0.72411  Biso   1.000  O
  O35      1.0000 0.42440  0.41365  0.42970  Biso   1.000  O
  O36      1.0000 0.59597  0.11924  0.72411  Biso   1.000  O
  O37      1.0000 0.59597  0.24208  0.42970  Biso   1.000  O
  O38      1.0000 0.42440  0.41365  0.72411  Biso   1.000  O
  O39      1.0000 0.59597  0.11924  0.55253  Biso   1.000  O
  O40      1.0000 0.30156  0.41365  0.72411  Biso   1.000  O
  O41      1.0000 0.04486  0.67722  0.98768  Biso   1.000  O
  O42      1.0000 0.87329  0.97163  0.15925  Biso   1.000  O
  O43      1.0000 0.16770  0.67722  0.98768  Biso   1.000  O
  O44      1.0000 0.87329  0.84879  0.28209  Biso   1.000  O
  O45      1.0000 0.16770  0.67722  0.15925  Biso   1.000  O
  O46      1.0000 0.87329  0.97163  0.98768  Biso   1.000  O
  O47      1.0000 0.04486  0.67722  0.28209  Biso   1.000  O
  O48      1.0000 0.87329  0.84879  0.98768  Biso   1.000  O
  O49      1.0000 0.87329  0.67722  0.28209  Biso   1.000  O
  O50      1.0000 0.04486  0.97163  0.98768  Biso   1.000  O
  O51      1.0000 0.87329  0.67722  0.15925  Biso   1.000  O
  O52      1.0000 0.16770  0.84879  0.98768  Biso   1.000  O
