data_image0
_cell_length_a       18.2422
_cell_length_b       18.2422
_cell_length_c       18.2422
_cell_angle_alpha    60
_cell_angle_beta     60
_cell_angle_gamma    60

_symmetry_space_group_name_H-M    "P 1"
_symmetry_int_tables_number       1

loop_
  _symmetry_equiv_pos_as_xyz
  'x, y, z'

loop_
  _atom_site_label
  _atom_site_occupancy
  _atom_site_fract_x
  _atom_site_fract_y
  _atom_site_fract_z
  _atom_site_thermal_displace_type
  _atom_site_B_iso_or_equiv
  _atom_site_type_symbol
  Zn1      1.0000 0.29356  0.29355  0.11934  Biso   1.000  Zn
  Zn2      1.0000 0.29356  0.29355  0.29355  Biso   1.000  Zn
  Zn3      1.0000 0.11935  0.29355  0.29355  Biso   1.000  Zn
  Zn4      1.0000 0.29356  0.11934  0.29355  Biso   1.000  Zn
  Zn5      1.0000 0.70644  0.70645  0.88066  Biso   1.000  Zn
  Zn6      1.0000 0.70644  0.70645  0.70645  Biso   1.000  Zn
  Zn7      1.0000 0.70644  0.88066  0.70645  Biso   1.000  Zn
  Zn8      1.0000 0.88065  0.70645  0.70645  Biso   1.000  Zn
  H1       1.0000 0.45610  0.45610  0.93590  Biso   1.000  H
  H2       1.0000 0.45610  0.45610  0.15190  Biso   1.000  H
  H3       1.0000 0.93590  0.15190  0.45610  Biso   1.000  H
  H4       1.0000 0.15190  0.93590  0.45610  Biso   1.000  H
  H5       1.0000 0.45610  0.93590  0.15190  Biso   1.000  H
  H6       1.0000 0.45610  0.15190  0.93590  Biso   1.000  H
  H7       1.0000 0.93590  0.45610  0.45610  Biso   1.000  H
  H8       1.0000 0.15190  0.45610  0.45610  Biso   1.000  H
  H9       1.0000 0.45610  0.15190  0.45610  Biso   1.000  H
  H10      1.0000 0.45610  0.93590  0.45610  Biso   1.000  H
  H11      1.0000 0.93590  0.45610  0.15190  Biso   1.000  H
  H12      1.0000 0.15190  0.45610  0.93590  Biso   1.000  H
  H13      1.0000 0.54390  0.54390  0.06410  Biso   1.000  H
  H14      1.0000 0.54390  0.54390  0.84810  Biso   1.000  H
  H15      1.0000 0.84810  0.06410  0.54390  Biso   1.000  H
  H16      1.0000 0.06410  0.84810  0.54390  Biso   1.000  H
  H17      1.0000 0.06410  0.54390  0.84810  Biso   1.000  H
  H18      1.0000 0.84810  0.54390  0.06410  Biso   1.000  H
  H19      1.0000 0.54390  0.06410  0.54390  Biso   1.000  H
  H20      1.0000 0.54390  0.84810  0.54390  Biso   1.000  H
  H21      1.0000 0.84810  0.54390  0.54390  Biso   1.000  H
  H22      1.0000 0.06410  0.54390  0.54390  Biso   1.000  H
  H23      1.0000 0.54390  0.06410  0.84810  Biso   1.000  H
  H24      1.0000 0.54390  0.84810  0.06410  Biso   1.000  H
  C1       1.0000 0.47369  0.47369  0.96285  Biso   1.000  C
  C2       1.0000 0.47369  0.47369  0.08977  Biso   1.000  C
  C3       1.0000 0.96285  0.08977  0.47369  Biso   1.000  C
  C4       1.0000 0.08977  0.96285  0.47369  Biso   1.000  C
  C5       1.0000 0.47369  0.96285  0.08977  Biso   1.000  C
  C6       1.0000 0.47369  0.08977  0.96285  Biso   1.000  C
  C7       1.0000 0.96285  0.47369  0.47369  Biso   1.000  C
  C8       1.0000 0.08977  0.47369  0.47369  Biso   1.000  C
  C9       1.0000 0.47369  0.08977  0.47369  Biso   1.000  C
  C10      1.0000 0.47369  0.96285  0.47369  Biso   1.000  C
  C11      1.0000 0.96285  0.47369  0.08977  Biso   1.000  C
  C12      1.0000 0.08977  0.47369  0.96285  Biso   1.000  C
  C13      1.0000 0.52631  0.52631  0.03715  Biso   1.000  C
  C14      1.0000 0.52631  0.52631  0.91023  Biso   1.000  C
  C15      1.0000 0.91023  0.03715  0.52631  Biso   1.000  C
  C16      1.0000 0.03715  0.91023  0.52631  Biso   1.000  C
  C17      1.0000 0.03715  0.52631  0.91023  Biso   1.000  C
  C18      1.0000 0.91023  0.52631  0.03715  Biso   1.000  C
  C19      1.0000 0.52631  0.03715  0.52631  Biso   1.000  C
  C20      1.0000 0.52631  0.91023  0.52631  Biso   1.000  C
  C21      1.0000 0.91023  0.52631  0.52631  Biso   1.000  C
  C22      1.0000 0.03715  0.52631  0.52631  Biso   1.000  C
  C23      1.0000 0.52631  0.03715  0.91023  Biso   1.000  C
  C24      1.0000 0.52631  0.91023  0.03715  Biso   1.000  C
  C25      1.0000 0.38870  0.38870  0.11130  Biso   1.000  C
  C26      1.0000 0.44610  0.44610  0.05390  Biso   1.000  C
  C27      1.0000 0.11130  0.11130  0.38870  Biso   1.000  C
  C28      1.0000 0.05390  0.05390  0.44610  Biso   1.000  C
  C29      1.0000 0.38870  0.11130  0.11130  Biso   1.000  C
  C30      1.0000 0.44610  0.05390  0.05390  Biso   1.000  C
  C31      1.0000 0.11130  0.38870  0.38870  Biso   1.000  C
  C32      1.0000 0.05390  0.44610  0.44610  Biso   1.000  C
  C33      1.0000 0.38870  0.11130  0.38870  Biso   1.000  C
  C34      1.0000 0.44610  0.05390  0.44610  Biso   1.000  C
  C35      1.0000 0.11130  0.38870  0.11130  Biso   1.000  C
  C36      1.0000 0.05390  0.44610  0.05390  Biso   1.000  C
  C37      1.0000 0.61130  0.61130  0.88870  Biso   1.000  C
  C38      1.0000 0.55390  0.55390  0.94610  Biso   1.000  C
  C39      1.0000 0.88870  0.88870  0.61130  Biso   1.000  C
  C40      1.0000 0.94610  0.94610  0.55390  Biso   1.000  C
  C41      1.0000 0.88870  0.61130  0.88870  Biso   1.000  C
  C42      1.0000 0.94610  0.55390  0.94610  Biso   1.000  C
  C43      1.0000 0.61130  0.88870  0.61130  Biso   1.000  C
  C44      1.0000 0.55390  0.94610  0.55390  Biso   1.000  C
  C45      1.0000 0.88870  0.61130  0.61130  Biso   1.000  C
  C46      1.0000 0.94610  0.55390  0.55390  Biso   1.000  C
  C47      1.0000 0.61130  0.88870  0.88870  Biso   1.000  C
  C48      1.0000 0.55390  0.94610  0.94610  Biso   1.000  C
  O1       1.0000 0.25000  0.25000  0.25000  Biso   1.000  O
  O2       1.0000 0.75000  0.75000  0.75000  Biso   1.000  O
  O3       1.0000 0.36609  0.36609  0.07323  Biso   1.000  O
  O4       1.0000 0.36609  0.36609  0.19459  Biso   1.000  O
  O5       1.0000 0.07323  0.19459  0.36609  Biso   1.000  O
  O6       1.0000 0.19459  0.07323  0.36609  Biso   1.000  O
  O7       1.0000 0.36609  0.07323  0.19459  Biso   1.000  O
  O8       1.0000 0.36609  0.19459  0.07323  Biso   1.000  O
  O9       1.0000 0.07323  0.36609  0.36609  Biso   1.000  O
  O10      1.0000 0.19459  0.36609  0.36609  Biso   1.000  O
  O11      1.0000 0.36609  0.19459  0.36609  Biso   1.000  O
  O12      1.0000 0.36609  0.07323  0.36609  Biso   1.000  O
  O13      1.0000 0.07323  0.36609  0.19459  Biso   1.000  O
  O14      1.0000 0.19459  0.36609  0.07323  Biso   1.000  O
  O15      1.0000 0.63391  0.63391  0.92677  Biso   1.000  O
  O16      1.0000 0.63391  0.63391  0.80541  Biso   1.000  O
  O17      1.0000 0.80541  0.92677  0.63391  Biso   1.000  O
  O18      1.0000 0.92677  0.80541  0.63391  Biso   1.000  O
  O19      1.0000 0.92677  0.63391  0.80541  Biso   1.000  O
  O20      1.0000 0.80541  0.63391  0.92677  Biso   1.000  O
  O21      1.0000 0.63391  0.92677  0.63391  Biso   1.000  O
  O22      1.0000 0.63391  0.80541  0.63391  Biso   1.000  O
  O23      1.0000 0.80541  0.63391  0.63391  Biso   1.000  O
  O24      1.0000 0.92677  0.63391  0.63391  Biso   1.000  O
  O25      1.0000 0.63391  0.92677  0.80541  Biso   1.000  O
  O26      1.0000 0.63391  0.80541  0.92677  Biso   1.000  O
  Zn9      1.0000 0.07807  0.58580  0.58703  Biso   1.000  Zn
  Zn10     1.0000 0.48966  0.17409  0.99882  Biso   1.000  Zn
  Zn11     1.0000 0.48966  0.99903  0.99882  Biso   1.000  Zn
  Zn12     1.0000 0.07807  0.41074  0.58703  Biso   1.000  Zn
  Zn13     1.0000 0.07762  0.58614  0.41173  Biso   1.000  Zn
  Zn14     1.0000 0.90262  0.58595  0.58713  Biso   1.000  Zn
  Zn15     1.0000 0.49012  0.99869  0.17411  Biso   1.000  Zn
  Zn16     1.0000 0.66512  0.99888  0.99872  Biso   1.000  Zn
  H25      1.0000 0.24034  0.23196  0.44330  Biso   1.000  H
  H26      1.0000 0.23501  0.44596  0.23135  Biso   1.000  H
  H27      1.0000 0.93615  0.23304  0.74736  Biso   1.000  H
  H28      1.0000 0.71943  0.44343  0.74966  Biso   1.000  H
  H29      1.0000 0.24115  0.44544  0.74486  Biso   1.000  H
  H30      1.0000 0.32740  0.83877  0.14255  Biso   1.000  H
  H31      1.0000 0.33272  0.83556  0.35450  Biso   1.000  H
  H32      1.0000 0.63159  0.83969  0.83849  Biso   1.000  H
  H33      1.0000 0.84831  0.83568  0.83618  Biso   1.000  H
  H34      1.0000 0.32658  0.35459  0.84099  Biso   1.000  H
  H35      1.0000 0.32740  0.35287  0.14255  Biso   1.000  H
  H36      1.0000 0.33272  0.13886  0.35450  Biso   1.000  H
  H37      1.0000 0.63159  0.35179  0.83849  Biso   1.000  H
  H38      1.0000 0.84831  0.14139  0.83618  Biso   1.000  H
  H39      1.0000 0.32659  0.13939  0.84099  Biso   1.000  H
  H40      1.0000 0.24033  0.74606  0.44330  Biso   1.000  H
  H41      1.0000 0.23501  0.74927  0.23135  Biso   1.000  H
  H42      1.0000 0.93615  0.74514  0.74736  Biso   1.000  H
  H43      1.0000 0.71943  0.74915  0.74966  Biso   1.000  H
  H44      1.0000 0.24115  0.23024  0.74486  Biso   1.000  H
  H45      1.0000 0.72031  0.74796  0.44540  Biso   1.000  H
  H46      1.0000 0.93442  0.74907  0.22905  Biso   1.000  H
  H47      1.0000 0.84742  0.83687  0.14044  Biso   1.000  H
  H48      1.0000 0.63332  0.83576  0.35680  Biso   1.000  H
  C49      1.0000 0.17246  0.40221  0.40686  Biso   1.000  C
  C50      1.0000 0.23212  0.34405  0.34559  Biso   1.000  C
  C51      1.0000 0.25815  0.25768  0.38103  Biso   1.000  C
  C52      1.0000 0.25443  0.38380  0.25738  Biso   1.000  C
  C53      1.0000 0.89309  0.40540  0.68429  Biso   1.000  C
  C54      1.0000 0.83894  0.34684  0.73965  Biso   1.000  C
  C55      1.0000 0.87389  0.25927  0.76538  Biso   1.000  C
  C56      1.0000 0.74715  0.38137  0.76718  Biso   1.000  C
  C57      1.0000 0.25707  0.38327  0.76498  Biso   1.000  C
  C58      1.0000 0.39528  0.90473  0.17899  Biso   1.000  C
  C59      1.0000 0.33562  0.84497  0.24026  Biso   1.000  C
  C60      1.0000 0.30959  0.82005  0.20482  Biso   1.000  C
  C61      1.0000 0.31330  0.81884  0.32847  Biso   1.000  C
  C62      1.0000 0.67464  0.90595  0.90156  Biso   1.000  C
  C63      1.0000 0.72879  0.84859  0.84620  Biso   1.000  C
  C64      1.0000 0.69385  0.82167  0.82046  Biso   1.000  C
  C65      1.0000 0.82058  0.81887  0.81866  Biso   1.000  C
  C66      1.0000 0.31067  0.32847  0.82087  Biso   1.000  C
  C67      1.0000 0.39528  0.18262  0.17899  Biso   1.000  C
  C68      1.0000 0.33562  0.24077  0.24026  Biso   1.000  C
  C69      1.0000 0.30959  0.32714  0.20482  Biso   1.000  C
  C70      1.0000 0.31330  0.20103  0.32847  Biso   1.000  C
  C71      1.0000 0.67464  0.17943  0.90156  Biso   1.000  C
  C72      1.0000 0.72879  0.23799  0.84620  Biso   1.000  C
  C73      1.0000 0.69385  0.32556  0.82046  Biso   1.000  C
  C74      1.0000 0.82058  0.20346  0.81866  Biso   1.000  C
  C75      1.0000 0.31067  0.20156  0.82087  Biso   1.000  C
  C76      1.0000 0.17246  0.68009  0.40686  Biso   1.000  C
  C77      1.0000 0.23212  0.73986  0.34559  Biso   1.000  C
  C78      1.0000 0.25815  0.76478  0.38103  Biso   1.000  C
  C79      1.0000 0.25444  0.76599  0.25738  Biso   1.000  C
  C80      1.0000 0.89310  0.67888  0.68429  Biso   1.000  C
  C81      1.0000 0.83895  0.73623  0.73965  Biso   1.000  C
  C82      1.0000 0.87389  0.76316  0.76538  Biso   1.000  C
  C83      1.0000 0.74716  0.76596  0.76718  Biso   1.000  C
  C84      1.0000 0.25707  0.25636  0.76498  Biso   1.000  C
  C85      1.0000 0.89979  0.68089  0.40005  Biso   1.000  C
  C86      1.0000 0.83752  0.73816  0.34779  Biso   1.000  C
  C87      1.0000 0.74754  0.76538  0.38333  Biso   1.000  C
  C88      1.0000 0.87225  0.76659  0.25618  Biso   1.000  C
  C89      1.0000 0.17097  0.40720  0.67628  Biso   1.000  C
  C90      1.0000 0.23103  0.34543  0.73975  Biso   1.000  C
  C91      1.0000 0.66795  0.90393  0.18580  Biso   1.000  C
  C92      1.0000 0.73021  0.84667  0.23806  Biso   1.000  C
  C93      1.0000 0.82020  0.81945  0.20252  Biso   1.000  C
  C94      1.0000 0.69548  0.81824  0.32967  Biso   1.000  C
  C95      1.0000 0.39677  0.17763  0.90957  Biso   1.000  C
  C96      1.0000 0.33670  0.23939  0.84610  Biso   1.000  C
  O27      1.0000 0.15234  0.48770  0.36090  Biso   1.000  O
  O28      1.0000 0.15364  0.35826  0.49116  Biso   1.000  O
  O29      1.0000 0.85315  0.48869  0.65776  Biso   1.000  O
  O30      1.0000 0.97948  0.36126  0.66176  Biso   1.000  O
  O31      1.0000 0.15185  0.48969  0.65896  Biso   1.000  O
  O32      1.0000 0.41540  0.92415  0.22494  Biso   1.000  O
  O33      1.0000 0.41409  0.92626  0.09469  Biso   1.000  O
  O34      1.0000 0.71458  0.92277  0.92809  Biso   1.000  O
  O35      1.0000 0.58826  0.92567  0.92409  Biso   1.000  O
  O36      1.0000 0.41589  0.22367  0.92689  Biso   1.000  O
  O37      1.0000 0.41540  0.09713  0.22494  Biso   1.000  O
  O38      1.0000 0.41409  0.22657  0.09469  Biso   1.000  O
  O39      1.0000 0.71458  0.09614  0.92809  Biso   1.000  O
  O40      1.0000 0.58826  0.22357  0.92409  Biso   1.000  O
  O41      1.0000 0.41589  0.09514  0.92689  Biso   1.000  O
  O42      1.0000 0.15234  0.66068  0.36090  Biso   1.000  O
  O43      1.0000 0.15365  0.65857  0.49116  Biso   1.000  O
  O44      1.0000 0.85315  0.66206  0.65776  Biso   1.000  O
  O45      1.0000 0.97948  0.65916  0.66176  Biso   1.000  O
  O46      1.0000 0.15185  0.36116  0.65896  Biso   1.000  O
  O47      1.0000 0.03483  0.54195  0.54292  Biso   1.000  O
  O48      1.0000 0.98067  0.65968  0.36160  Biso   1.000  O
  O49      1.0000 0.85455  0.66197  0.48315  Biso   1.000  O
  O50      1.0000 0.53291  0.04288  0.04293  Biso   1.000  O
  O51      1.0000 0.58707  0.92515  0.22424  Biso   1.000  O
  O52      1.0000 0.71319  0.92286  0.10270  Biso   1.000  O
