data_image0
_cell_length_a       18.2965
_cell_length_b       18.2965
_cell_length_c       18.2965
_cell_angle_alpha    60
_cell_angle_beta     60
_cell_angle_gamma    60

_symmetry_space_group_name_H-M    "P 1"
_symmetry_int_tables_number       1

loop_
  _symmetry_equiv_pos_as_xyz
  'x, y, z'

loop_
  _atom_site_label
  _atom_site_occupancy
  _atom_site_fract_x
  _atom_site_fract_y
  _atom_site_fract_z
  _atom_site_thermal_displace_type
  _atom_site_B_iso_or_equiv
  _atom_site_type_symbol
  C1       1.0000 0.29344  0.29343  0.11970  Biso   1.000  C
  C2       1.0000 0.29344  0.29343  0.29343  Biso   1.000  C
  C3       1.0000 0.11971  0.29343  0.29343  Biso   1.000  C
  C4       1.0000 0.29344  0.11970  0.29343  Biso   1.000  C
  C5       1.0000 0.70656  0.70657  0.88030  Biso   1.000  C
  C6       1.0000 0.70656  0.70657  0.70657  Biso   1.000  C
  C7       1.0000 0.70656  0.88030  0.70657  Biso   1.000  C
  C8       1.0000 0.88029  0.70657  0.70657  Biso   1.000  C
  C9       1.0000 0.45520  0.45520  0.93480  Biso   1.000  C
  C10      1.0000 0.45520  0.45520  0.15480  Biso   1.000  C
  C11      1.0000 0.93480  0.15480  0.45520  Biso   1.000  C
  C12      1.0000 0.15480  0.93480  0.45520  Biso   1.000  C
  C13      1.0000 0.45520  0.93480  0.15480  Biso   1.000  C
  C14      1.0000 0.45520  0.15480  0.93480  Biso   1.000  C
  C15      1.0000 0.93480  0.45520  0.45520  Biso   1.000  C
  C16      1.0000 0.15480  0.45520  0.45520  Biso   1.000  C
  C17      1.0000 0.45520  0.15480  0.45520  Biso   1.000  C
  C18      1.0000 0.45520  0.93480  0.45520  Biso   1.000  C
  C19      1.0000 0.93480  0.45520  0.15480  Biso   1.000  C
  C20      1.0000 0.15480  0.45520  0.93480  Biso   1.000  C
  C21      1.0000 0.54480  0.54480  0.06520  Biso   1.000  C
  C22      1.0000 0.54480  0.54480  0.84520  Biso   1.000  C
  C23      1.0000 0.84520  0.06520  0.54480  Biso   1.000  C
  C24      1.0000 0.06520  0.84520  0.54480  Biso   1.000  C
  C25      1.0000 0.06520  0.54480  0.84520  Biso   1.000  C
  C26      1.0000 0.84520  0.54480  0.06520  Biso   1.000  C
  C27      1.0000 0.54480  0.06520  0.54480  Biso   1.000  C
  C28      1.0000 0.54480  0.84520  0.54480  Biso   1.000  C
  C29      1.0000 0.84520  0.54480  0.54480  Biso   1.000  C
  C30      1.0000 0.06520  0.54480  0.54480  Biso   1.000  C
  C31      1.0000 0.54480  0.06520  0.84520  Biso   1.000  C
  C32      1.0000 0.54480  0.84520  0.06520  Biso   1.000  C
  C33      1.0000 0.47339  0.47339  0.96175  Biso   1.000  C
  C34      1.0000 0.47339  0.47339  0.09147  Biso   1.000  C
  C35      1.0000 0.96175  0.09147  0.47339  Biso   1.000  C
  C36      1.0000 0.09147  0.96175  0.47339  Biso   1.000  C
  C37      1.0000 0.47339  0.96175  0.09147  Biso   1.000  C
  C38      1.0000 0.47339  0.09147  0.96175  Biso   1.000  C
  C39      1.0000 0.96175  0.47339  0.47339  Biso   1.000  C
  C40      1.0000 0.09147  0.47339  0.47339  Biso   1.000  C
  C41      1.0000 0.47339  0.09147  0.47339  Biso   1.000  C
  C42      1.0000 0.47339  0.96175  0.47339  Biso   1.000  C
  C43      1.0000 0.96175  0.47339  0.09147  Biso   1.000  C
  C44      1.0000 0.09147  0.47339  0.96175  Biso   1.000  C
  C45      1.0000 0.52661  0.52661  0.03825  Biso   1.000  C
  C46      1.0000 0.52661  0.52661  0.90853  Biso   1.000  C
  C47      1.0000 0.90853  0.03825  0.52661  Biso   1.000  C
  C48      1.0000 0.03825  0.90853  0.52661  Biso   1.000  C
  C49      1.0000 0.03825  0.52661  0.90853  Biso   1.000  C
  C50      1.0000 0.90853  0.52661  0.03825  Biso   1.000  C
  C51      1.0000 0.52661  0.03825  0.52661  Biso   1.000  C
  C52      1.0000 0.52661  0.90853  0.52661  Biso   1.000  C
  C53      1.0000 0.90853  0.52661  0.52661  Biso   1.000  C
  C54      1.0000 0.03825  0.52661  0.52661  Biso   1.000  C
  C55      1.0000 0.52661  0.03825  0.90853  Biso   1.000  C
  C56      1.0000 0.52661  0.90853  0.03825  Biso   1.000  C
  C57      1.0000 0.38840  0.38840  0.11160  Biso   1.000  C
  C58      1.0000 0.44637  0.44637  0.05363  Biso   1.000  C
  C59      1.0000 0.11160  0.11160  0.38840  Biso   1.000  C
  C60      1.0000 0.05363  0.05363  0.44637  Biso   1.000  C
  C61      1.0000 0.38840  0.11160  0.11160  Biso   1.000  C
  C62      1.0000 0.44637  0.05363  0.05363  Biso   1.000  C
  C63      1.0000 0.11160  0.38840  0.38840  Biso   1.000  C
  C64      1.0000 0.05363  0.44637  0.44637  Biso   1.000  C
  C65      1.0000 0.38840  0.11160  0.38840  Biso   1.000  C
  C66      1.0000 0.44637  0.05363  0.44637  Biso   1.000  C
  C67      1.0000 0.11160  0.38840  0.11160  Biso   1.000  C
  C68      1.0000 0.05363  0.44637  0.05363  Biso   1.000  C
  C69      1.0000 0.61160  0.61160  0.88840  Biso   1.000  C
  C70      1.0000 0.55363  0.55363  0.94637  Biso   1.000  C
  C71      1.0000 0.88840  0.88840  0.61160  Biso   1.000  C
  C72      1.0000 0.94637  0.94637  0.55363  Biso   1.000  C
  C73      1.0000 0.88840  0.61160  0.88840  Biso   1.000  C
  C74      1.0000 0.94637  0.55363  0.94637  Biso   1.000  C
  C75      1.0000 0.61160  0.88840  0.61160  Biso   1.000  C
  C76      1.0000 0.55363  0.94637  0.55363  Biso   1.000  C
  C77      1.0000 0.88840  0.61160  0.61160  Biso   1.000  C
  C78      1.0000 0.94637  0.55363  0.55363  Biso   1.000  C
  C79      1.0000 0.61160  0.88840  0.88840  Biso   1.000  C
  C80      1.0000 0.55363  0.94637  0.94637  Biso   1.000  C
  C81      1.0000 0.25000  0.25000  0.25000  Biso   1.000  C
  C82      1.0000 0.75000  0.75000  0.75000  Biso   1.000  C
  C83      1.0000 0.36613  0.36613  0.07281  Biso   1.000  C
  C84      1.0000 0.36613  0.36613  0.19493  Biso   1.000  C
  C85      1.0000 0.07281  0.19493  0.36613  Biso   1.000  C
  C86      1.0000 0.19493  0.07281  0.36613  Biso   1.000  C
  C87      1.0000 0.36613  0.07281  0.19493  Biso   1.000  C
  C88      1.0000 0.36613  0.19493  0.07281  Biso   1.000  C
  C89      1.0000 0.07281  0.36613  0.36613  Biso   1.000  C
  C90      1.0000 0.19493  0.36613  0.36613  Biso   1.000  C
  C91      1.0000 0.36613  0.19493  0.36613  Biso   1.000  C
  C92      1.0000 0.36613  0.07281  0.36613  Biso   1.000  C
  C93      1.0000 0.07281  0.36613  0.19493  Biso   1.000  C
  C94      1.0000 0.19493  0.36613  0.07281  Biso   1.000  C
  C95      1.0000 0.63387  0.63387  0.92719  Biso   1.000  C
  C96      1.0000 0.63387  0.63387  0.80507  Biso   1.000  C
  C97      1.0000 0.80507  0.92719  0.63387  Biso   1.000  C
  C98      1.0000 0.92719  0.80507  0.63387  Biso   1.000  C
  C99      1.0000 0.92719  0.63387  0.80507  Biso   1.000  C
  C100     1.0000 0.80507  0.63387  0.92719  Biso   1.000  C
  C101     1.0000 0.63387  0.92719  0.63387  Biso   1.000  C
  C102     1.0000 0.63387  0.80507  0.63387  Biso   1.000  C
  C103     1.0000 0.80507  0.63387  0.63387  Biso   1.000  C
  C104     1.0000 0.92719  0.63387  0.63387  Biso   1.000  C
  C105     1.0000 0.63387  0.92719  0.80507  Biso   1.000  C
  C106     1.0000 0.63387  0.80507  0.92719  Biso   1.000  C
  O1       1.0000 0.50036  0.51782  0.33359  Biso   1.000  O
  O2       1.0000 0.50036  0.51782  0.50670  Biso   1.000  O
  O3       1.0000 0.32724  0.51782  0.50670  Biso   1.000  O
  O4       1.0000 0.50036  0.34470  0.50670  Biso   1.000  O
  O5       1.0000 0.91051  0.92795  0.08995  Biso   1.000  O
  O6       1.0000 0.91051  0.92795  0.91683  Biso   1.000  O
  O7       1.0000 0.91051  0.10107  0.91683  Biso   1.000  O
  O8       1.0000 0.08363  0.92795  0.91683  Biso   1.000  O
  O9       1.0000 0.66173  0.67918  0.14528  Biso   1.000  O
  O10      1.0000 0.66173  0.67918  0.36567  Biso   1.000  O
  O11      1.0000 0.13895  0.37679  0.66806  Biso   1.000  O
  O12      1.0000 0.35934  0.15640  0.66806  Biso   1.000  O
  O13      1.0000 0.66173  0.15640  0.36567  Biso   1.000  O
  O14      1.0000 0.66173  0.37679  0.14528  Biso   1.000  O
  O15      1.0000 0.13895  0.67918  0.66806  Biso   1.000  O
  O16      1.0000 0.35934  0.67918  0.66806  Biso   1.000  O
  O17      1.0000 0.66173  0.37679  0.66806  Biso   1.000  O
  O18      1.0000 0.66173  0.15640  0.66806  Biso   1.000  O
  O19      1.0000 0.13895  0.67918  0.36567  Biso   1.000  O
  O20      1.0000 0.35934  0.67918  0.14528  Biso   1.000  O
  O21      1.0000 0.74914  0.76659  0.27825  Biso   1.000  O
  O22      1.0000 0.74914  0.76659  0.05786  Biso   1.000  O
  O23      1.0000 0.05153  0.28937  0.75548  Biso   1.000  O
  O24      1.0000 0.27192  0.06898  0.75548  Biso   1.000  O
  O25      1.0000 0.27192  0.76659  0.05786  Biso   1.000  O
  O26      1.0000 0.05153  0.76659  0.27825  Biso   1.000  O
  O27      1.0000 0.74914  0.28937  0.75548  Biso   1.000  O
  O28      1.0000 0.74914  0.06898  0.75548  Biso   1.000  O
  O29      1.0000 0.05153  0.76659  0.75548  Biso   1.000  O
  O30      1.0000 0.27192  0.76659  0.75548  Biso   1.000  O
  O31      1.0000 0.74914  0.28937  0.05786  Biso   1.000  O
  O32      1.0000 0.74914  0.06898  0.27825  Biso   1.000  O
  O33      1.0000 0.67921  0.69666  0.17190  Biso   1.000  O
  O34      1.0000 0.67921  0.69666  0.30408  Biso   1.000  O
  O35      1.0000 0.16557  0.31520  0.68554  Biso   1.000  O
  O36      1.0000 0.29775  0.18302  0.68554  Biso   1.000  O
  O37      1.0000 0.67921  0.18302  0.30408  Biso   1.000  O
  O38      1.0000 0.67921  0.31520  0.17190  Biso   1.000  O
  O39      1.0000 0.16557  0.69666  0.68554  Biso   1.000  O
  O40      1.0000 0.29775  0.69666  0.68554  Biso   1.000  O
  O41      1.0000 0.67921  0.31520  0.68554  Biso   1.000  O
  O42      1.0000 0.67921  0.18302  0.68554  Biso   1.000  O
  O43      1.0000 0.16557  0.69666  0.30408  Biso   1.000  O
  O44      1.0000 0.29775  0.69666  0.17190  Biso   1.000  O
  O45      1.0000 0.73166  0.74911  0.25163  Biso   1.000  O
  O46      1.0000 0.73166  0.74911  0.11945  Biso   1.000  O
  O47      1.0000 0.11312  0.26275  0.73799  Biso   1.000  O
  O48      1.0000 0.24530  0.13057  0.73799  Biso   1.000  O
  O49      1.0000 0.24530  0.74911  0.11945  Biso   1.000  O
  O50      1.0000 0.11312  0.74911  0.25163  Biso   1.000  O
  O51      1.0000 0.73166  0.26275  0.73799  Biso   1.000  O
  O52      1.0000 0.73166  0.13057  0.73799  Biso   1.000  O
  O53      1.0000 0.11312  0.74911  0.73799  Biso   1.000  O
  O54      1.0000 0.24530  0.74911  0.73799  Biso   1.000  O
  O55      1.0000 0.73166  0.26275  0.11945  Biso   1.000  O
  O56      1.0000 0.73166  0.13057  0.25163  Biso   1.000  O
  O57      1.0000 0.59477  0.61222  0.32574  Biso   1.000  O
  O58      1.0000 0.65209  0.66954  0.26842  Biso   1.000  O
  O59      1.0000 0.31940  0.33685  0.60110  Biso   1.000  O
  O60      1.0000 0.26209  0.27954  0.65842  Biso   1.000  O
  O61      1.0000 0.59477  0.33685  0.32574  Biso   1.000  O
  O62      1.0000 0.65209  0.27954  0.26842  Biso   1.000  O
  O63      1.0000 0.31940  0.61222  0.60110  Biso   1.000  O
  O64      1.0000 0.26209  0.66954  0.65842  Biso   1.000  O
  O65      1.0000 0.59477  0.33685  0.60110  Biso   1.000  O
  O66      1.0000 0.65209  0.27954  0.65842  Biso   1.000  O
  O67      1.0000 0.31940  0.61222  0.32574  Biso   1.000  O
  O68      1.0000 0.26209  0.66954  0.26842  Biso   1.000  O
  O69      1.0000 0.81610  0.83355  0.09780  Biso   1.000  O
  O70      1.0000 0.75878  0.77623  0.15512  Biso   1.000  O
  O71      1.0000 0.09146  0.10891  0.82243  Biso   1.000  O
  O72      1.0000 0.14878  0.16623  0.76511  Biso   1.000  O
  O73      1.0000 0.09146  0.83355  0.09780  Biso   1.000  O
  O74      1.0000 0.14878  0.77623  0.15512  Biso   1.000  O
  O75      1.0000 0.81610  0.10891  0.82243  Biso   1.000  O
  O76      1.0000 0.75878  0.16623  0.76511  Biso   1.000  O
  O77      1.0000 0.09146  0.83355  0.82243  Biso   1.000  O
  O78      1.0000 0.14878  0.77623  0.76511  Biso   1.000  O
  O79      1.0000 0.81610  0.10891  0.09780  Biso   1.000  O
  O80      1.0000 0.75878  0.16623  0.15512  Biso   1.000  O
  O81      1.0000 0.45709  0.47454  0.46342  Biso   1.000  O
  O82      1.0000 0.95378  0.97123  0.96011  Biso   1.000  O
  O83      1.0000 0.57237  0.58982  0.28782  Biso   1.000  O
  O84      1.0000 0.57237  0.58982  0.40846  Biso   1.000  O
  O85      1.0000 0.28149  0.41957  0.57870  Biso   1.000  O
  O86      1.0000 0.40212  0.29894  0.57870  Biso   1.000  O
  O87      1.0000 0.57237  0.29894  0.40846  Biso   1.000  O
  O88      1.0000 0.57237  0.41957  0.28782  Biso   1.000  O
  O89      1.0000 0.28149  0.58982  0.57870  Biso   1.000  O
  O90      1.0000 0.40212  0.58982  0.57870  Biso   1.000  O
  O91      1.0000 0.57237  0.41957  0.57870  Biso   1.000  O
  O92      1.0000 0.57237  0.29894  0.57870  Biso   1.000  O
  O93      1.0000 0.28149  0.58982  0.40846  Biso   1.000  O
  O94      1.0000 0.40212  0.58982  0.28782  Biso   1.000  O
  O95      1.0000 0.83850  0.85595  0.13572  Biso   1.000  O
  O96      1.0000 0.83850  0.85595  0.01508  Biso   1.000  O
  O97      1.0000 0.00875  0.14683  0.84483  Biso   1.000  O
  O98      1.0000 0.12938  0.02619  0.84483  Biso   1.000  O
  O99      1.0000 0.12938  0.85595  0.01508  Biso   1.000  O
  O100     1.0000 0.00875  0.85595  0.13572  Biso   1.000  O
  O101     1.0000 0.83850  0.14683  0.84483  Biso   1.000  O
  O102     1.0000 0.83850  0.02619  0.84483  Biso   1.000  O
  O103     1.0000 0.00875  0.85595  0.84483  Biso   1.000  O
  O104     1.0000 0.12938  0.85595  0.84483  Biso   1.000  O
  O105     1.0000 0.83850  0.14683  0.01508  Biso   1.000  O
  O106     1.0000 0.83850  0.02619  0.13572  Biso   1.000  O
