data_image0
_cell_length_a       18.2455
_cell_length_b       18.2455
_cell_length_c       18.2455
_cell_angle_alpha    60
_cell_angle_beta     60
_cell_angle_gamma    60

_symmetry_space_group_name_H-M    "P 1"
_symmetry_int_tables_number       1

loop_
  _symmetry_equiv_pos_as_xyz
  'x, y, z'

loop_
  _atom_site_label
  _atom_site_occupancy
  _atom_site_fract_x
  _atom_site_fract_y
  _atom_site_fract_z
  _atom_site_thermal_displace_type
  _atom_site_B_iso_or_equiv
  _atom_site_type_symbol
  Zn1      1.0000 0.29354  0.29354  0.11938  Biso   1.000  Zn
  Zn2      1.0000 0.29354  0.29354  0.29354  Biso   1.000  Zn
  Zn3      1.0000 0.11938  0.29354  0.29354  Biso   1.000  Zn
  Zn4      1.0000 0.29354  0.11938  0.29354  Biso   1.000  Zn
  Zn5      1.0000 0.70646  0.70646  0.88062  Biso   1.000  Zn
  Zn6      1.0000 0.70646  0.70646  0.70646  Biso   1.000  Zn
  Zn7      1.0000 0.70646  0.88062  0.70646  Biso   1.000  Zn
  Zn8      1.0000 0.88062  0.70646  0.70646  Biso   1.000  Zn
  H1       1.0000 0.45580  0.45580  0.93620  Biso   1.000  H
  H2       1.0000 0.45580  0.45580  0.15220  Biso   1.000  H
  H3       1.0000 0.93620  0.15220  0.45580  Biso   1.000  H
  H4       1.0000 0.15220  0.93620  0.45580  Biso   1.000  H
  H5       1.0000 0.45580  0.93620  0.15220  Biso   1.000  H
  H6       1.0000 0.45580  0.15220  0.93620  Biso   1.000  H
  H7       1.0000 0.93620  0.45580  0.45580  Biso   1.000  H
  H8       1.0000 0.15220  0.45580  0.45580  Biso   1.000  H
  H9       1.0000 0.45580  0.15220  0.45580  Biso   1.000  H
  H10      1.0000 0.45580  0.93620  0.45580  Biso   1.000  H
  H11      1.0000 0.93620  0.45580  0.15220  Biso   1.000  H
  H12      1.0000 0.15220  0.45580  0.93620  Biso   1.000  H
  H13      1.0000 0.54420  0.54420  0.06380  Biso   1.000  H
  H14      1.0000 0.54420  0.54420  0.84780  Biso   1.000  H
  H15      1.0000 0.84780  0.06380  0.54420  Biso   1.000  H
  H16      1.0000 0.06380  0.84780  0.54420  Biso   1.000  H
  H17      1.0000 0.06380  0.54420  0.84780  Biso   1.000  H
  H18      1.0000 0.84780  0.54420  0.06380  Biso   1.000  H
  H19      1.0000 0.54420  0.06380  0.54420  Biso   1.000  H
  H20      1.0000 0.54420  0.84780  0.54420  Biso   1.000  H
  H21      1.0000 0.84780  0.54420  0.54420  Biso   1.000  H
  H22      1.0000 0.06380  0.54420  0.54420  Biso   1.000  H
  H23      1.0000 0.54420  0.06380  0.84780  Biso   1.000  H
  H24      1.0000 0.54420  0.84780  0.06380  Biso   1.000  H
  C1       1.0000 0.47345  0.47345  0.96303  Biso   1.000  C
  C2       1.0000 0.47345  0.47345  0.09007  Biso   1.000  C
  C3       1.0000 0.96303  0.09007  0.47345  Biso   1.000  C
  C4       1.0000 0.09007  0.96303  0.47345  Biso   1.000  C
  C5       1.0000 0.47345  0.96303  0.09007  Biso   1.000  C
  C6       1.0000 0.47345  0.09007  0.96303  Biso   1.000  C
  C7       1.0000 0.96303  0.47345  0.47345  Biso   1.000  C
  C8       1.0000 0.09007  0.47345  0.47345  Biso   1.000  C
  C9       1.0000 0.47345  0.09007  0.47345  Biso   1.000  C
  C10      1.0000 0.47345  0.96303  0.47345  Biso   1.000  C
  C11      1.0000 0.96303  0.47345  0.09007  Biso   1.000  C
  C12      1.0000 0.09007  0.47345  0.96303  Biso   1.000  C
  C13      1.0000 0.52655  0.52655  0.03697  Biso   1.000  C
  C14      1.0000 0.52655  0.52655  0.90993  Biso   1.000  C
  C15      1.0000 0.90993  0.03697  0.52655  Biso   1.000  C
  C16      1.0000 0.03697  0.90993  0.52655  Biso   1.000  C
  C17      1.0000 0.03697  0.52655  0.90993  Biso   1.000  C
  C18      1.0000 0.90993  0.52655  0.03697  Biso   1.000  C
  C19      1.0000 0.52655  0.03697  0.52655  Biso   1.000  C
  C20      1.0000 0.52655  0.90993  0.52655  Biso   1.000  C
  C21      1.0000 0.90993  0.52655  0.52655  Biso   1.000  C
  C22      1.0000 0.03697  0.52655  0.52655  Biso   1.000  C
  C23      1.0000 0.52655  0.03697  0.90993  Biso   1.000  C
  C24      1.0000 0.52655  0.90993  0.03697  Biso   1.000  C
  C25      1.0000 0.38857  0.38857  0.11143  Biso   1.000  C
  C26      1.0000 0.44620  0.44620  0.05380  Biso   1.000  C
  C27      1.0000 0.11143  0.11143  0.38857  Biso   1.000  C
  C28      1.0000 0.05380  0.05380  0.44620  Biso   1.000  C
  C29      1.0000 0.38857  0.11143  0.11143  Biso   1.000  C
  C30      1.0000 0.44620  0.05380  0.05380  Biso   1.000  C
  C31      1.0000 0.11143  0.38857  0.38857  Biso   1.000  C
  C32      1.0000 0.05380  0.44620  0.44620  Biso   1.000  C
  C33      1.0000 0.38857  0.11143  0.38857  Biso   1.000  C
  C34      1.0000 0.44620  0.05380  0.44620  Biso   1.000  C
  C35      1.0000 0.11143  0.38857  0.11143  Biso   1.000  C
  C36      1.0000 0.05380  0.44620  0.05380  Biso   1.000  C
  C37      1.0000 0.61143  0.61143  0.88857  Biso   1.000  C
  C38      1.0000 0.55380  0.55380  0.94620  Biso   1.000  C
  C39      1.0000 0.88857  0.88857  0.61143  Biso   1.000  C
  C40      1.0000 0.94620  0.94620  0.55380  Biso   1.000  C
  C41      1.0000 0.88857  0.61143  0.88857  Biso   1.000  C
  C42      1.0000 0.94620  0.55380  0.94620  Biso   1.000  C
  C43      1.0000 0.61143  0.88857  0.61143  Biso   1.000  C
  C44      1.0000 0.55380  0.94620  0.55380  Biso   1.000  C
  C45      1.0000 0.88857  0.61143  0.61143  Biso   1.000  C
  C46      1.0000 0.94620  0.55380  0.55380  Biso   1.000  C
  C47      1.0000 0.61143  0.88857  0.88857  Biso   1.000  C
  C48      1.0000 0.55380  0.94620  0.94620  Biso   1.000  C
  O1       1.0000 0.25000  0.25000  0.25000  Biso   1.000  O
  O2       1.0000 0.75000  0.75000  0.75000  Biso   1.000  O
  O3       1.0000 0.36603  0.36603  0.07311  Biso   1.000  O
  O4       1.0000 0.36603  0.36603  0.19483  Biso   1.000  O
  O5       1.0000 0.07311  0.19483  0.36603  Biso   1.000  O
  O6       1.0000 0.19483  0.07311  0.36603  Biso   1.000  O
  O7       1.0000 0.36603  0.07311  0.19483  Biso   1.000  O
  O8       1.0000 0.36603  0.19483  0.07311  Biso   1.000  O
  O9       1.0000 0.07311  0.36603  0.36603  Biso   1.000  O
  O10      1.0000 0.19483  0.36603  0.36603  Biso   1.000  O
  O11      1.0000 0.36603  0.19483  0.36603  Biso   1.000  O
  O12      1.0000 0.36603  0.07311  0.36603  Biso   1.000  O
  O13      1.0000 0.07311  0.36603  0.19483  Biso   1.000  O
  O14      1.0000 0.19483  0.36603  0.07311  Biso   1.000  O
  O15      1.0000 0.63397  0.63397  0.92689  Biso   1.000  O
  O16      1.0000 0.63397  0.63397  0.80517  Biso   1.000  O
  O17      1.0000 0.80517  0.92689  0.63397  Biso   1.000  O
  O18      1.0000 0.92689  0.80517  0.63397  Biso   1.000  O
  O19      1.0000 0.92689  0.63397  0.80517  Biso   1.000  O
  O20      1.0000 0.80517  0.63397  0.92689  Biso   1.000  O
  O21      1.0000 0.63397  0.92689  0.63397  Biso   1.000  O
  O22      1.0000 0.63397  0.80517  0.63397  Biso   1.000  O
  O23      1.0000 0.80517  0.63397  0.63397  Biso   1.000  O
  O24      1.0000 0.92689  0.63397  0.63397  Biso   1.000  O
  O25      1.0000 0.63397  0.92689  0.80517  Biso   1.000  O
  O26      1.0000 0.63397  0.80517  0.92689  Biso   1.000  O
  Zn9      1.0000 0.59454  0.08007  0.71943  Biso   1.000  Zn
  Zn10     1.0000 0.59454  0.25398  0.71943  Biso   1.000  Zn
  Zn11     1.0000 0.42063  0.25398  0.71943  Biso   1.000  Zn
  Zn12     1.0000 0.59454  0.25398  0.54551  Biso   1.000  Zn
  Zn13     1.0000 0.01375  0.66497  0.13041  Biso   1.000  Zn
  Zn14     1.0000 0.01375  0.83888  0.13041  Biso   1.000  Zn
  Zn15     1.0000 0.18767  0.66497  0.13041  Biso   1.000  Zn
  Zn16     1.0000 0.01375  0.66497  0.30433  Biso   1.000  Zn
  H25      1.0000 0.46330  0.89541  0.87737  Biso   1.000  H
  H26      1.0000 0.75249  0.41193  0.58819  Biso   1.000  H
  H27      1.0000 0.23597  0.12274  0.87737  Biso   1.000  H
  H28      1.0000 0.75249  0.41193  0.36086  Biso   1.000  H
  H29      1.0000 0.23597  0.41193  0.58819  Biso   1.000  H
  H30      1.0000 0.75249  0.12274  0.87737  Biso   1.000  H
  H31      1.0000 0.46330  0.41193  0.36086  Biso   1.000  H
  H32      1.0000 0.75249  0.89541  0.87737  Biso   1.000  H
  H33      1.0000 0.75249  0.12274  0.36086  Biso   1.000  H
  H34      1.0000 0.46330  0.41193  0.87737  Biso   1.000  H
  H35      1.0000 0.75249  0.89541  0.58819  Biso   1.000  H
  H36      1.0000 0.23597  0.41193  0.87737  Biso   1.000  H
  H37      1.0000 0.14499  0.50702  0.97247  Biso   1.000  H
  H38      1.0000 0.85581  0.02354  0.26165  Biso   1.000  H
  H39      1.0000 0.37232  0.50702  0.97247  Biso   1.000  H
  H40      1.0000 0.85581  0.79620  0.48898  Biso   1.000  H
  H41      1.0000 0.37232  0.50702  0.26165  Biso   1.000  H
  H42      1.0000 0.85581  0.02354  0.97247  Biso   1.000  H
  H43      1.0000 0.14499  0.50702  0.48898  Biso   1.000  H
  H44      1.0000 0.85581  0.79620  0.97247  Biso   1.000  H
  H45      1.0000 0.85581  0.50702  0.48898  Biso   1.000  H
  H46      1.0000 0.14499  0.02354  0.97247  Biso   1.000  H
  H47      1.0000 0.85581  0.50702  0.26165  Biso   1.000  H
  H48      1.0000 0.37232  0.79620  0.97247  Biso   1.000  H
  C49      1.0000 0.39261  0.92112  0.89987  Biso   1.000  C
  C50      1.0000 0.77498  0.43442  0.51750  Biso   1.000  C
  C51      1.0000 0.26167  0.05205  0.89987  Biso   1.000  C
  C52      1.0000 0.77498  0.43442  0.38656  Biso   1.000  C
  C53      1.0000 0.26167  0.43442  0.51750  Biso   1.000  C
  C54      1.0000 0.77498  0.05205  0.89987  Biso   1.000  C
  C55      1.0000 0.39261  0.43442  0.38656  Biso   1.000  C
  C56      1.0000 0.77498  0.92112  0.89987  Biso   1.000  C
  C57      1.0000 0.77498  0.05205  0.38656  Biso   1.000  C
  C58      1.0000 0.39261  0.43442  0.89987  Biso   1.000  C
  C59      1.0000 0.77498  0.92112  0.51750  Biso   1.000  C
  C60      1.0000 0.26167  0.43442  0.89987  Biso   1.000  C
  C61      1.0000 0.21568  0.48453  0.94997  Biso   1.000  C
  C62      1.0000 0.83332  0.99783  0.33234  Biso   1.000  C
  C63      1.0000 0.34662  0.48453  0.94997  Biso   1.000  C
  C64      1.0000 0.83332  0.86689  0.46328  Biso   1.000  C
  C65      1.0000 0.34662  0.48453  0.33234  Biso   1.000  C
  C66      1.0000 0.83332  0.99783  0.94997  Biso   1.000  C
  C67      1.0000 0.21568  0.48453  0.46328  Biso   1.000  C
  C68      1.0000 0.83332  0.86689  0.94997  Biso   1.000  C
  C69      1.0000 0.83332  0.48453  0.46328  Biso   1.000  C
  C70      1.0000 0.21568  0.99783  0.94997  Biso   1.000  C
  C71      1.0000 0.83332  0.48453  0.33234  Biso   1.000  C
  C72      1.0000 0.34662  0.86689  0.94997  Biso   1.000  C
  C73      1.0000 0.41119  0.07063  0.81582  Biso   1.000  C
  C74      1.0000 0.35445  0.01390  0.87255  Biso   1.000  C
  C75      1.0000 0.69093  0.35038  0.53608  Biso   1.000  C
  C76      1.0000 0.74767  0.40711  0.47934  Biso   1.000  C
  C77      1.0000 0.41119  0.35038  0.53608  Biso   1.000  C
  C78      1.0000 0.35445  0.40711  0.47934  Biso   1.000  C
  C79      1.0000 0.69093  0.07063  0.81582  Biso   1.000  C
  C80      1.0000 0.74767  0.01390  0.87255  Biso   1.000  C
  C81      1.0000 0.69093  0.07063  0.53608  Biso   1.000  C
  C82      1.0000 0.74767  0.01390  0.47934  Biso   1.000  C
  C83      1.0000 0.41119  0.35038  0.81582  Biso   1.000  C
  C84      1.0000 0.35445  0.40711  0.87255  Biso   1.000  C
  C85      1.0000 0.19711  0.56857  0.03402  Biso   1.000  C
  C86      1.0000 0.25384  0.51184  0.97729  Biso   1.000  C
  C87      1.0000 0.91736  0.84832  0.31376  Biso   1.000  C
  C88      1.0000 0.86063  0.90505  0.37050  Biso   1.000  C
  C89      1.0000 0.19711  0.56857  0.31376  Biso   1.000  C
  C90      1.0000 0.25384  0.51184  0.37050  Biso   1.000  C
  C91      1.0000 0.91736  0.84832  0.03402  Biso   1.000  C
  C92      1.0000 0.86063  0.90505  0.97729  Biso   1.000  C
  C93      1.0000 0.91736  0.56857  0.31376  Biso   1.000  C
  C94      1.0000 0.86063  0.51184  0.37050  Biso   1.000  C
  C95      1.0000 0.19711  0.84832  0.03402  Biso   1.000  C
  C96      1.0000 0.25384  0.90505  0.97729  Biso   1.000  C
  O27      1.0000 0.55106  0.21050  0.67595  Biso   1.000  O
  O28      1.0000 0.05723  0.70845  0.17389  Biso   1.000  O
  O29      1.0000 0.49614  0.03308  0.79212  Biso   1.000  O
  O30      1.0000 0.66724  0.32668  0.62102  Biso   1.000  O
  O31      1.0000 0.37363  0.15558  0.79212  Biso   1.000  O
  O32      1.0000 0.66724  0.32668  0.49852  Biso   1.000  O
  O33      1.0000 0.37363  0.32668  0.62102  Biso   1.000  O
  O34      1.0000 0.66724  0.15558  0.79212  Biso   1.000  O
  O35      1.0000 0.49614  0.32668  0.49852  Biso   1.000  O
  O36      1.0000 0.66724  0.03308  0.79212  Biso   1.000  O
  O37      1.0000 0.66724  0.15558  0.49852  Biso   1.000  O
  O38      1.0000 0.49614  0.32668  0.79212  Biso   1.000  O
  O39      1.0000 0.66724  0.03308  0.62102  Biso   1.000  O
  O40      1.0000 0.37363  0.32668  0.79212  Biso   1.000  O
  O41      1.0000 0.11216  0.59227  0.05771  Biso   1.000  O
  O42      1.0000 0.94106  0.88587  0.22882  Biso   1.000  O
  O43      1.0000 0.23466  0.59227  0.05771  Biso   1.000  O
  O44      1.0000 0.94106  0.76337  0.35132  Biso   1.000  O
  O45      1.0000 0.23466  0.59227  0.22882  Biso   1.000  O
  O46      1.0000 0.94106  0.88587  0.05771  Biso   1.000  O
  O47      1.0000 0.11216  0.59227  0.35132  Biso   1.000  O
  O48      1.0000 0.94106  0.76337  0.05771  Biso   1.000  O
  O49      1.0000 0.94106  0.59227  0.35132  Biso   1.000  O
  O50      1.0000 0.11216  0.88587  0.05771  Biso   1.000  O
  O51      1.0000 0.94106  0.59227  0.22882  Biso   1.000  O
  O52      1.0000 0.23466  0.76337  0.05771  Biso   1.000  O
