data_image0
_cell_length_a       18.2789
_cell_length_b       18.2789
_cell_length_c       18.2789
_cell_angle_alpha    60
_cell_angle_beta     60
_cell_angle_gamma    60

_symmetry_space_group_name_H-M    "P 1"
_symmetry_int_tables_number       1

loop_
  _symmetry_equiv_pos_as_xyz
  'x, y, z'

loop_
  _atom_site_label
  _atom_site_occupancy
  _atom_site_fract_x
  _atom_site_fract_y
  _atom_site_fract_z
  _atom_site_thermal_displace_type
  _atom_site_B_iso_or_equiv
  _atom_site_type_symbol
  Zn1      1.0000 0.29348  0.29347  0.11958  Biso   1.000  Zn
  Zn2      1.0000 0.29348  0.29347  0.29347  Biso   1.000  Zn
  Zn3      1.0000 0.11959  0.29347  0.29347  Biso   1.000  Zn
  Zn4      1.0000 0.29348  0.11958  0.29347  Biso   1.000  Zn
  Zn5      1.0000 0.70652  0.70653  0.88042  Biso   1.000  Zn
  Zn6      1.0000 0.70652  0.70653  0.70653  Biso   1.000  Zn
  Zn7      1.0000 0.70652  0.88042  0.70653  Biso   1.000  Zn
  Zn8      1.0000 0.88041  0.70653  0.70653  Biso   1.000  Zn
  H1       1.0000 0.45520  0.45520  0.93520  Biso   1.000  H
  H2       1.0000 0.45520  0.45520  0.15440  Biso   1.000  H
  H3       1.0000 0.93520  0.15440  0.45520  Biso   1.000  H
  H4       1.0000 0.15440  0.93520  0.45520  Biso   1.000  H
  H5       1.0000 0.45520  0.93520  0.15440  Biso   1.000  H
  H6       1.0000 0.45520  0.15440  0.93520  Biso   1.000  H
  H7       1.0000 0.93520  0.45520  0.45520  Biso   1.000  H
  H8       1.0000 0.15440  0.45520  0.45520  Biso   1.000  H
  H9       1.0000 0.45520  0.15440  0.45520  Biso   1.000  H
  H10      1.0000 0.45520  0.93520  0.45520  Biso   1.000  H
  H11      1.0000 0.93520  0.45520  0.15440  Biso   1.000  H
  H12      1.0000 0.15440  0.45520  0.93520  Biso   1.000  H
  H13      1.0000 0.54480  0.54480  0.06480  Biso   1.000  H
  H14      1.0000 0.54480  0.54480  0.84560  Biso   1.000  H
  H15      1.0000 0.84560  0.06480  0.54480  Biso   1.000  H
  H16      1.0000 0.06480  0.84560  0.54480  Biso   1.000  H
  H17      1.0000 0.06480  0.54480  0.84560  Biso   1.000  H
  H18      1.0000 0.84560  0.54480  0.06480  Biso   1.000  H
  H19      1.0000 0.54480  0.06480  0.54480  Biso   1.000  H
  H20      1.0000 0.54480  0.84560  0.54480  Biso   1.000  H
  H21      1.0000 0.84560  0.54480  0.54480  Biso   1.000  H
  H22      1.0000 0.06480  0.54480  0.54480  Biso   1.000  H
  H23      1.0000 0.54480  0.06480  0.84560  Biso   1.000  H
  H24      1.0000 0.54480  0.84560  0.06480  Biso   1.000  H
  C1       1.0000 0.47338  0.47338  0.96214  Biso   1.000  C
  C2       1.0000 0.47338  0.47338  0.09110  Biso   1.000  C
  C3       1.0000 0.96214  0.09110  0.47338  Biso   1.000  C
  C4       1.0000 0.09110  0.96214  0.47338  Biso   1.000  C
  C5       1.0000 0.47338  0.96214  0.09110  Biso   1.000  C
  C6       1.0000 0.47338  0.09110  0.96214  Biso   1.000  C
  C7       1.0000 0.96214  0.47338  0.47338  Biso   1.000  C
  C8       1.0000 0.09110  0.47338  0.47338  Biso   1.000  C
  C9       1.0000 0.47338  0.09110  0.47338  Biso   1.000  C
  C10      1.0000 0.47338  0.96214  0.47338  Biso   1.000  C
  C11      1.0000 0.96214  0.47338  0.09110  Biso   1.000  C
  C12      1.0000 0.09110  0.47338  0.96214  Biso   1.000  C
  C13      1.0000 0.52662  0.52662  0.03786  Biso   1.000  C
  C14      1.0000 0.52662  0.52662  0.90890  Biso   1.000  C
  C15      1.0000 0.90890  0.03786  0.52662  Biso   1.000  C
  C16      1.0000 0.03786  0.90890  0.52662  Biso   1.000  C
  C17      1.0000 0.03786  0.52662  0.90890  Biso   1.000  C
  C18      1.0000 0.90890  0.52662  0.03786  Biso   1.000  C
  C19      1.0000 0.52662  0.03786  0.52662  Biso   1.000  C
  C20      1.0000 0.52662  0.90890  0.52662  Biso   1.000  C
  C21      1.0000 0.90890  0.52662  0.52662  Biso   1.000  C
  C22      1.0000 0.03786  0.52662  0.52662  Biso   1.000  C
  C23      1.0000 0.52662  0.03786  0.90890  Biso   1.000  C
  C24      1.0000 0.52662  0.90890  0.03786  Biso   1.000  C
  C25      1.0000 0.38853  0.38853  0.11147  Biso   1.000  C
  C26      1.0000 0.44615  0.44615  0.05385  Biso   1.000  C
  C27      1.0000 0.11147  0.11147  0.38853  Biso   1.000  C
  C28      1.0000 0.05385  0.05385  0.44615  Biso   1.000  C
  C29      1.0000 0.38853  0.11147  0.11147  Biso   1.000  C
  C30      1.0000 0.44615  0.05385  0.05385  Biso   1.000  C
  C31      1.0000 0.11147  0.38853  0.38853  Biso   1.000  C
  C32      1.0000 0.05385  0.44615  0.44615  Biso   1.000  C
  C33      1.0000 0.38853  0.11147  0.38853  Biso   1.000  C
  C34      1.0000 0.44615  0.05385  0.44615  Biso   1.000  C
  C35      1.0000 0.11147  0.38853  0.11147  Biso   1.000  C
  C36      1.0000 0.05385  0.44615  0.05385  Biso   1.000  C
  C37      1.0000 0.61147  0.61147  0.88853  Biso   1.000  C
  C38      1.0000 0.55385  0.55385  0.94615  Biso   1.000  C
  C39      1.0000 0.88853  0.88853  0.61147  Biso   1.000  C
  C40      1.0000 0.94615  0.94615  0.55385  Biso   1.000  C
  C41      1.0000 0.88853  0.61147  0.88853  Biso   1.000  C
  C42      1.0000 0.94615  0.55385  0.94615  Biso   1.000  C
  C43      1.0000 0.61147  0.88853  0.61147  Biso   1.000  C
  C44      1.0000 0.55385  0.94615  0.55385  Biso   1.000  C
  C45      1.0000 0.88853  0.61147  0.61147  Biso   1.000  C
  C46      1.0000 0.94615  0.55385  0.55385  Biso   1.000  C
  C47      1.0000 0.61147  0.88853  0.88853  Biso   1.000  C
  C48      1.0000 0.55385  0.94615  0.94615  Biso   1.000  C
  O1       1.0000 0.25000  0.25000  0.25000  Biso   1.000  O
  O2       1.0000 0.75000  0.75000  0.75000  Biso   1.000  O
  O3       1.0000 0.36624  0.36624  0.07286  Biso   1.000  O
  O4       1.0000 0.36624  0.36624  0.19466  Biso   1.000  O
  O5       1.0000 0.07286  0.19466  0.36624  Biso   1.000  O
  O6       1.0000 0.19466  0.07286  0.36624  Biso   1.000  O
  O7       1.0000 0.36624  0.07286  0.19466  Biso   1.000  O
  O8       1.0000 0.36624  0.19466  0.07286  Biso   1.000  O
  O9       1.0000 0.07286  0.36624  0.36624  Biso   1.000  O
  O10      1.0000 0.19466  0.36624  0.36624  Biso   1.000  O
  O11      1.0000 0.36624  0.19466  0.36624  Biso   1.000  O
  O12      1.0000 0.36624  0.07286  0.36624  Biso   1.000  O
  O13      1.0000 0.07286  0.36624  0.19466  Biso   1.000  O
  O14      1.0000 0.19466  0.36624  0.07286  Biso   1.000  O
  O15      1.0000 0.63376  0.63376  0.92714  Biso   1.000  O
  O16      1.0000 0.63376  0.63376  0.80534  Biso   1.000  O
  O17      1.0000 0.80534  0.92714  0.63376  Biso   1.000  O
  O18      1.0000 0.92714  0.80534  0.63376  Biso   1.000  O
  O19      1.0000 0.92714  0.63376  0.80534  Biso   1.000  O
  O20      1.0000 0.80534  0.63376  0.92714  Biso   1.000  O
  O21      1.0000 0.63376  0.92714  0.63376  Biso   1.000  O
  O22      1.0000 0.63376  0.80534  0.63376  Biso   1.000  O
  O23      1.0000 0.80534  0.63376  0.63376  Biso   1.000  O
  O24      1.0000 0.92714  0.63376  0.63376  Biso   1.000  O
  O25      1.0000 0.63376  0.92714  0.80534  Biso   1.000  O
  O26      1.0000 0.63376  0.80534  0.92714  Biso   1.000  O
  Zn9      1.0000 0.50111  0.51859  0.33408  Biso   1.000  Zn
  Zn10     1.0000 0.50111  0.51859  0.50746  Biso   1.000  Zn
  Zn11     1.0000 0.32773  0.51859  0.50746  Biso   1.000  Zn
  Zn12     1.0000 0.50111  0.34521  0.50746  Biso   1.000  Zn
  Zn13     1.0000 0.91165  0.92912  0.09137  Biso   1.000  Zn
  Zn14     1.0000 0.91165  0.92912  0.91799  Biso   1.000  Zn
  Zn15     1.0000 0.91165  0.10250  0.91799  Biso   1.000  Zn
  Zn16     1.0000 0.08503  0.92912  0.91799  Biso   1.000  Zn
  H25      1.0000 0.66233  0.67980  0.14700  Biso   1.000  H
  H26      1.0000 0.66233  0.67980  0.36656  Biso   1.000  H
  H27      1.0000 0.14065  0.37769  0.66867  Biso   1.000  H
  H28      1.0000 0.36021  0.15813  0.66867  Biso   1.000  H
  H29      1.0000 0.66233  0.15813  0.36656  Biso   1.000  H
  H30      1.0000 0.66233  0.37769  0.14700  Biso   1.000  H
  H31      1.0000 0.14065  0.67980  0.66867  Biso   1.000  H
  H32      1.0000 0.36021  0.67980  0.66867  Biso   1.000  H
  H33      1.0000 0.66233  0.37769  0.66867  Biso   1.000  H
  H34      1.0000 0.66233  0.15813  0.66867  Biso   1.000  H
  H35      1.0000 0.14065  0.67980  0.36656  Biso   1.000  H
  H36      1.0000 0.36021  0.67980  0.14700  Biso   1.000  H
  H37      1.0000 0.75043  0.76791  0.27845  Biso   1.000  H
  H38      1.0000 0.75043  0.76791  0.05889  Biso   1.000  H
  H39      1.0000 0.05254  0.28958  0.75678  Biso   1.000  H
  H40      1.0000 0.27211  0.07002  0.75678  Biso   1.000  H
  H41      1.0000 0.27211  0.76791  0.05889  Biso   1.000  H
  H42      1.0000 0.05254  0.76791  0.27845  Biso   1.000  H
  H43      1.0000 0.75043  0.28958  0.75678  Biso   1.000  H
  H44      1.0000 0.75043  0.07002  0.75678  Biso   1.000  H
  H45      1.0000 0.05254  0.76791  0.75678  Biso   1.000  H
  H46      1.0000 0.27211  0.76791  0.75678  Biso   1.000  H
  H47      1.0000 0.75043  0.28958  0.05889  Biso   1.000  H
  H48      1.0000 0.75043  0.07002  0.27845  Biso   1.000  H
  C49      1.0000 0.67993  0.69740  0.17371  Biso   1.000  C
  C50      1.0000 0.67993  0.69740  0.30465  Biso   1.000  C
  C51      1.0000 0.16736  0.31578  0.68627  Biso   1.000  C
  C52      1.0000 0.29830  0.18484  0.68627  Biso   1.000  C
  C53      1.0000 0.67993  0.18484  0.30465  Biso   1.000  C
  C54      1.0000 0.67993  0.31578  0.17371  Biso   1.000  C
  C55      1.0000 0.16736  0.69740  0.68627  Biso   1.000  C
  C56      1.0000 0.29830  0.69740  0.68627  Biso   1.000  C
  C57      1.0000 0.67993  0.31578  0.68627  Biso   1.000  C
  C58      1.0000 0.67993  0.18484  0.68627  Biso   1.000  C
  C59      1.0000 0.16736  0.69740  0.30465  Biso   1.000  C
  C60      1.0000 0.29830  0.69740  0.17371  Biso   1.000  C
  C61      1.0000 0.73283  0.75031  0.25174  Biso   1.000  C
  C62      1.0000 0.73283  0.75031  0.12080  Biso   1.000  C
  C63      1.0000 0.11446  0.26287  0.73918  Biso   1.000  C
  C64      1.0000 0.24540  0.13193  0.73918  Biso   1.000  C
  C65      1.0000 0.24540  0.75031  0.12080  Biso   1.000  C
  C66      1.0000 0.11446  0.75031  0.25174  Biso   1.000  C
  C67      1.0000 0.73283  0.26287  0.73918  Biso   1.000  C
  C68      1.0000 0.73283  0.13193  0.73918  Biso   1.000  C
  C69      1.0000 0.11446  0.75031  0.73918  Biso   1.000  C
  C70      1.0000 0.24540  0.75031  0.73918  Biso   1.000  C
  C71      1.0000 0.73283  0.26287  0.12080  Biso   1.000  C
  C72      1.0000 0.73283  0.13193  0.25174  Biso   1.000  C
  C73      1.0000 0.59550  0.61297  0.32639  Biso   1.000  C
  C74      1.0000 0.65278  0.67025  0.26911  Biso   1.000  C
  C75      1.0000 0.32004  0.33751  0.60185  Biso   1.000  C
  C76      1.0000 0.26276  0.28024  0.65913  Biso   1.000  C
  C77      1.0000 0.59550  0.33751  0.32639  Biso   1.000  C
  C78      1.0000 0.65278  0.28024  0.26911  Biso   1.000  C
  C79      1.0000 0.32004  0.61297  0.60185  Biso   1.000  C
  C80      1.0000 0.26276  0.67025  0.65913  Biso   1.000  C
  C81      1.0000 0.59550  0.33751  0.60185  Biso   1.000  C
  C82      1.0000 0.65278  0.28024  0.65913  Biso   1.000  C
  C83      1.0000 0.32004  0.61297  0.32639  Biso   1.000  C
  C84      1.0000 0.26276  0.67025  0.26911  Biso   1.000  C
  C85      1.0000 0.81726  0.83473  0.09906  Biso   1.000  C
  C86      1.0000 0.75998  0.77745  0.15634  Biso   1.000  C
  C87      1.0000 0.09272  0.11019  0.82361  Biso   1.000  C
  C88      1.0000 0.15000  0.16747  0.76633  Biso   1.000  C
  C89      1.0000 0.09272  0.83473  0.09906  Biso   1.000  C
  C90      1.0000 0.15000  0.77745  0.15634  Biso   1.000  C
  C91      1.0000 0.81726  0.11019  0.82361  Biso   1.000  C
  C92      1.0000 0.75998  0.16747  0.76633  Biso   1.000  C
  C93      1.0000 0.09272  0.83473  0.82361  Biso   1.000  C
  C94      1.0000 0.15000  0.77745  0.76633  Biso   1.000  C
  C95      1.0000 0.81726  0.11019  0.09906  Biso   1.000  C
  C96      1.0000 0.75998  0.16747  0.15634  Biso   1.000  C
  O27      1.0000 0.45777  0.47524  0.46412  Biso   1.000  O
  O28      1.0000 0.95499  0.97246  0.96134  Biso   1.000  O
  O29      1.0000 0.57322  0.59070  0.28832  Biso   1.000  O
  O30      1.0000 0.57322  0.59070  0.40900  Biso   1.000  O
  O31      1.0000 0.28197  0.42013  0.57957  Biso   1.000  O
  O32      1.0000 0.40266  0.29945  0.57957  Biso   1.000  O
  O33      1.0000 0.57322  0.29945  0.40900  Biso   1.000  O
  O34      1.0000 0.57322  0.42013  0.28832  Biso   1.000  O
  O35      1.0000 0.28197  0.59070  0.57957  Biso   1.000  O
  O36      1.0000 0.40266  0.59070  0.57957  Biso   1.000  O
  O37      1.0000 0.57322  0.42013  0.57957  Biso   1.000  O
  O38      1.0000 0.57322  0.29945  0.57957  Biso   1.000  O
  O39      1.0000 0.28197  0.59070  0.40900  Biso   1.000  O
  O40      1.0000 0.40266  0.59070  0.28832  Biso   1.000  O
  O41      1.0000 0.83953  0.85701  0.13713  Biso   1.000  O
  O42      1.0000 0.83953  0.85701  0.01645  Biso   1.000  O
  O43      1.0000 0.01010  0.14826  0.84588  Biso   1.000  O
  O44      1.0000 0.13079  0.02758  0.84588  Biso   1.000  O
  O45      1.0000 0.13079  0.85701  0.01645  Biso   1.000  O
  O46      1.0000 0.01010  0.85701  0.13713  Biso   1.000  O
  O47      1.0000 0.83953  0.14826  0.84588  Biso   1.000  O
  O48      1.0000 0.83953  0.02758  0.84588  Biso   1.000  O
  O49      1.0000 0.01010  0.85701  0.84588  Biso   1.000  O
  O50      1.0000 0.13079  0.85701  0.84588  Biso   1.000  O
  O51      1.0000 0.83953  0.14826  0.01645  Biso   1.000  O
  O52      1.0000 0.83953  0.02758  0.13713  Biso   1.000  O
