data_image0
_cell_length_a       18.3083
_cell_length_b       18.3083
_cell_length_c       18.3083
_cell_angle_alpha    60
_cell_angle_beta     60
_cell_angle_gamma    60

_symmetry_space_group_name_H-M    "P 1"
_symmetry_int_tables_number       1

loop_
  _symmetry_equiv_pos_as_xyz
  'x, y, z'

loop_
  _atom_site_label
  _atom_site_occupancy
  _atom_site_fract_x
  _atom_site_fract_y
  _atom_site_fract_z
  _atom_site_thermal_displace_type
  _atom_site_B_iso_or_equiv
  _atom_site_type_symbol
  Zn1      1.0000 0.29342  0.29341  0.11976  Biso   1.000  Zn
  Zn2      1.0000 0.29342  0.29341  0.29341  Biso   1.000  Zn
  Zn3      1.0000 0.11977  0.29341  0.29341  Biso   1.000  Zn
  Zn4      1.0000 0.29342  0.11976  0.29341  Biso   1.000  Zn
  Zn5      1.0000 0.70658  0.70659  0.88024  Biso   1.000  Zn
  Zn6      1.0000 0.70658  0.70659  0.70659  Biso   1.000  Zn
  Zn7      1.0000 0.70658  0.88024  0.70659  Biso   1.000  Zn
  Zn8      1.0000 0.88023  0.70659  0.70659  Biso   1.000  Zn
  H1       1.0000 0.45480  0.45480  0.93480  Biso   1.000  H
  H2       1.0000 0.45480  0.45480  0.15560  Biso   1.000  H
  H3       1.0000 0.93480  0.15560  0.45480  Biso   1.000  H
  H4       1.0000 0.15560  0.93480  0.45480  Biso   1.000  H
  H5       1.0000 0.45480  0.93480  0.15560  Biso   1.000  H
  H6       1.0000 0.45480  0.15560  0.93480  Biso   1.000  H
  H7       1.0000 0.93480  0.45480  0.45480  Biso   1.000  H
  H8       1.0000 0.15560  0.45480  0.45480  Biso   1.000  H
  H9       1.0000 0.45480  0.15560  0.45480  Biso   1.000  H
  H10      1.0000 0.45480  0.93480  0.45480  Biso   1.000  H
  H11      1.0000 0.93480  0.45480  0.15560  Biso   1.000  H
  H12      1.0000 0.15560  0.45480  0.93480  Biso   1.000  H
  H13      1.0000 0.54520  0.54520  0.06520  Biso   1.000  H
  H14      1.0000 0.54520  0.54520  0.84440  Biso   1.000  H
  H15      1.0000 0.84440  0.06520  0.54520  Biso   1.000  H
  H16      1.0000 0.06520  0.84440  0.54520  Biso   1.000  H
  H17      1.0000 0.06520  0.54520  0.84440  Biso   1.000  H
  H18      1.0000 0.84440  0.54520  0.06520  Biso   1.000  H
  H19      1.0000 0.54520  0.06520  0.54520  Biso   1.000  H
  H20      1.0000 0.54520  0.84440  0.54520  Biso   1.000  H
  H21      1.0000 0.84440  0.54520  0.54520  Biso   1.000  H
  H22      1.0000 0.06520  0.54520  0.54520  Biso   1.000  H
  H23      1.0000 0.54520  0.06520  0.84440  Biso   1.000  H
  H24      1.0000 0.54520  0.84440  0.06520  Biso   1.000  H
  C1       1.0000 0.47317  0.47317  0.96131  Biso   1.000  C
  C2       1.0000 0.47317  0.47317  0.09235  Biso   1.000  C
  C3       1.0000 0.96131  0.09235  0.47317  Biso   1.000  C
  C4       1.0000 0.09235  0.96131  0.47317  Biso   1.000  C
  C5       1.0000 0.47317  0.96131  0.09235  Biso   1.000  C
  C6       1.0000 0.47317  0.09235  0.96131  Biso   1.000  C
  C7       1.0000 0.96131  0.47317  0.47317  Biso   1.000  C
  C8       1.0000 0.09235  0.47317  0.47317  Biso   1.000  C
  C9       1.0000 0.47317  0.09235  0.47317  Biso   1.000  C
  C10      1.0000 0.47317  0.96131  0.47317  Biso   1.000  C
  C11      1.0000 0.96131  0.47317  0.09235  Biso   1.000  C
  C12      1.0000 0.09235  0.47317  0.96131  Biso   1.000  C
  C13      1.0000 0.52683  0.52683  0.03869  Biso   1.000  C
  C14      1.0000 0.52683  0.52683  0.90765  Biso   1.000  C
  C15      1.0000 0.90765  0.03869  0.52683  Biso   1.000  C
  C16      1.0000 0.03869  0.90765  0.52683  Biso   1.000  C
  C17      1.0000 0.03869  0.52683  0.90765  Biso   1.000  C
  C18      1.0000 0.90765  0.52683  0.03869  Biso   1.000  C
  C19      1.0000 0.52683  0.03869  0.52683  Biso   1.000  C
  C20      1.0000 0.52683  0.90765  0.52683  Biso   1.000  C
  C21      1.0000 0.90765  0.52683  0.52683  Biso   1.000  C
  C22      1.0000 0.03869  0.52683  0.52683  Biso   1.000  C
  C23      1.0000 0.52683  0.03869  0.90765  Biso   1.000  C
  C24      1.0000 0.52683  0.90765  0.03869  Biso   1.000  C
  C25      1.0000 0.38843  0.38843  0.11157  Biso   1.000  C
  C26      1.0000 0.44641  0.44641  0.05359  Biso   1.000  C
  C27      1.0000 0.11157  0.11157  0.38843  Biso   1.000  C
  C28      1.0000 0.05359  0.05359  0.44641  Biso   1.000  C
  C29      1.0000 0.38843  0.11157  0.11157  Biso   1.000  C
  C30      1.0000 0.44641  0.05359  0.05359  Biso   1.000  C
  C31      1.0000 0.11157  0.38843  0.38843  Biso   1.000  C
  C32      1.0000 0.05359  0.44641  0.44641  Biso   1.000  C
  C33      1.0000 0.38843  0.11157  0.38843  Biso   1.000  C
  C34      1.0000 0.44641  0.05359  0.44641  Biso   1.000  C
  C35      1.0000 0.11157  0.38843  0.11157  Biso   1.000  C
  C36      1.0000 0.05359  0.44641  0.05359  Biso   1.000  C
  C37      1.0000 0.61157  0.61157  0.88843  Biso   1.000  C
  C38      1.0000 0.55359  0.55359  0.94641  Biso   1.000  C
  C39      1.0000 0.88843  0.88843  0.61157  Biso   1.000  C
  C40      1.0000 0.94641  0.94641  0.55359  Biso   1.000  C
  C41      1.0000 0.88843  0.61157  0.88843  Biso   1.000  C
  C42      1.0000 0.94641  0.55359  0.94641  Biso   1.000  C
  C43      1.0000 0.61157  0.88843  0.61157  Biso   1.000  C
  C44      1.0000 0.55359  0.94641  0.55359  Biso   1.000  C
  C45      1.0000 0.88843  0.61157  0.61157  Biso   1.000  C
  C46      1.0000 0.94641  0.55359  0.55359  Biso   1.000  C
  C47      1.0000 0.61157  0.88843  0.88843  Biso   1.000  C
  C48      1.0000 0.55359  0.94641  0.94641  Biso   1.000  C
  O1       1.0000 0.25000  0.25000  0.25000  Biso   1.000  O
  O2       1.0000 0.75000  0.75000  0.75000  Biso   1.000  O
  O3       1.0000 0.36629  0.36629  0.07237  Biso   1.000  O
  O4       1.0000 0.36629  0.36629  0.19505  Biso   1.000  O
  O5       1.0000 0.07237  0.19505  0.36629  Biso   1.000  O
  O6       1.0000 0.19505  0.07237  0.36629  Biso   1.000  O
  O7       1.0000 0.36629  0.07237  0.19505  Biso   1.000  O
  O8       1.0000 0.36629  0.19505  0.07237  Biso   1.000  O
  O9       1.0000 0.07237  0.36629  0.36629  Biso   1.000  O
  O10      1.0000 0.19505  0.36629  0.36629  Biso   1.000  O
  O11      1.0000 0.36629  0.19505  0.36629  Biso   1.000  O
  O12      1.0000 0.36629  0.07237  0.36629  Biso   1.000  O
  O13      1.0000 0.07237  0.36629  0.19505  Biso   1.000  O
  O14      1.0000 0.19505  0.36629  0.07237  Biso   1.000  O
  O15      1.0000 0.63371  0.63371  0.92763  Biso   1.000  O
  O16      1.0000 0.63371  0.63371  0.80495  Biso   1.000  O
  O17      1.0000 0.80495  0.92763  0.63371  Biso   1.000  O
  O18      1.0000 0.92763  0.80495  0.63371  Biso   1.000  O
  O19      1.0000 0.92763  0.63371  0.80495  Biso   1.000  O
  O20      1.0000 0.80495  0.63371  0.92763  Biso   1.000  O
  O21      1.0000 0.63371  0.92763  0.63371  Biso   1.000  O
  O22      1.0000 0.63371  0.80495  0.63371  Biso   1.000  O
  O23      1.0000 0.80495  0.63371  0.63371  Biso   1.000  O
  O24      1.0000 0.92763  0.63371  0.63371  Biso   1.000  O
  O25      1.0000 0.63371  0.92763  0.80495  Biso   1.000  O
  O26      1.0000 0.63371  0.80495  0.92763  Biso   1.000  O
  Zn9      1.0000 0.17128  0.96848  0.86702  Biso   1.000  Zn
  Zn10     1.0000 0.58751  0.38468  0.45085  Biso   1.000  Zn
  Zn11     1.0000 0.41423  0.55796  0.45085  Biso   1.000  Zn
  Zn12     1.0000 0.99800  0.14176  0.86702  Biso   1.000  Zn
  Zn13     1.0000 0.99781  0.96828  0.04045  Biso   1.000  Zn
  Zn14     1.0000 0.99794  0.96841  0.86681  Biso   1.000  Zn
  Zn15     1.0000 0.58770  0.55816  0.27742  Biso   1.000  Zn
  Zn16     1.0000 0.58757  0.55803  0.45106  Biso   1.000  Zn
  H25      1.0000 0.83630  0.32973  0.00755  Biso   1.000  H
  H26      1.0000 0.83319  0.10876  0.22016  Biso   1.000  H
  H27      1.0000 0.83989  0.32776  0.70688  Biso   1.000  H
  H28      1.0000 0.83939  0.10760  0.70161  Biso   1.000  H
  H29      1.0000 0.35840  0.10819  0.70867  Biso   1.000  H
  H30      1.0000 0.22623  0.71968  0.31032  Biso   1.000  H
  H31      1.0000 0.44722  0.72278  0.09771  Biso   1.000  H
  H32      1.0000 0.22820  0.71609  0.61099  Biso   1.000  H
  H33      1.0000 0.44838  0.71659  0.61626  Biso   1.000  H
  H34      1.0000 0.44778  0.19759  0.60920  Biso   1.000  H
  H35      1.0000 0.74921  0.19671  0.31032  Biso   1.000  H
  H36      1.0000 0.75232  0.41768  0.09771  Biso   1.000  H
  H37      1.0000 0.74562  0.19868  0.61099  Biso   1.000  H
  H38      1.0000 0.74612  0.41884  0.61626  Biso   1.000  H
  H39      1.0000 0.22711  0.41825  0.60920  Biso   1.000  H
  H40      1.0000 0.35928  0.80676  0.00755  Biso   1.000  H
  H41      1.0000 0.13829  0.80366  0.22016  Biso   1.000  H
  H42      1.0000 0.35731  0.81035  0.70688  Biso   1.000  H
  H43      1.0000 0.13713  0.80985  0.70161  Biso   1.000  H
  H44      1.0000 0.13773  0.32885  0.70867  Biso   1.000  H
  H45      1.0000 0.83758  0.80805  0.00686  Biso   1.000  H
  H46      1.0000 0.83489  0.80535  0.22404  Biso   1.000  H
  H47      1.0000 0.74793  0.71839  0.31101  Biso   1.000  H
  H48      1.0000 0.75062  0.72109  0.09383  Biso   1.000  H
  C49      1.0000 0.90386  0.15141  0.04602  Biso   1.000  C
  C50      1.0000 0.84542  0.20805  0.10606  Biso   1.000  C
  C51      1.0000 0.81950  0.30339  0.06948  Biso   1.000  C
  C52      1.0000 0.81769  0.17058  0.19472  Biso   1.000  C
  C53      1.0000 0.90428  0.15023  0.77109  Biso   1.000  C
  C54      1.0000 0.84873  0.20559  0.71453  Biso   1.000  C
  C55      1.0000 0.82111  0.30222  0.68948  Biso   1.000  C
  C56      1.0000 0.82070  0.16921  0.68610  Biso   1.000  C
  C57      1.0000 0.33226  0.16991  0.68928  Biso   1.000  C
  C58      1.0000 0.40458  0.65211  0.27185  Biso   1.000  C
  C59      1.0000 0.34794  0.71055  0.21181  Biso   1.000  C
  C60      1.0000 0.25257  0.73648  0.24839  Biso   1.000  C
  C61      1.0000 0.38541  0.73828  0.12315  Biso   1.000  C
  C62      1.0000 0.40576  0.65169  0.54678  Biso   1.000  C
  C63      1.0000 0.35040  0.70725  0.60334  Biso   1.000  C
  C64      1.0000 0.25374  0.73487  0.62839  Biso   1.000  C
  C65      1.0000 0.38677  0.73527  0.63177  Biso   1.000  C
  C66      1.0000 0.38607  0.22373  0.62858  Biso   1.000  C
  C67      1.0000 0.68165  0.37503  0.27185  Biso   1.000  C
  C68      1.0000 0.74009  0.31839  0.21181  Biso   1.000  C
  C69      1.0000 0.76601  0.22305  0.24839  Biso   1.000  C
  C70      1.0000 0.76782  0.35586  0.12315  Biso   1.000  C
  C71      1.0000 0.68123  0.37621  0.54678  Biso   1.000  C
  C72      1.0000 0.73678  0.32085  0.60334  Biso   1.000  C
  C73      1.0000 0.76440  0.22422  0.62839  Biso   1.000  C
  C74      1.0000 0.76481  0.35723  0.63177  Biso   1.000  C
  C75      1.0000 0.25325  0.35653  0.62858  Biso   1.000  C
  C76      1.0000 0.18093  0.87433  0.04602  Biso   1.000  C
  C77      1.0000 0.23757  0.81589  0.10606  Biso   1.000  C
  C78      1.0000 0.33294  0.78996  0.06948  Biso   1.000  C
  C79      1.0000 0.20010  0.78816  0.19472  Biso   1.000  C
  C80      1.0000 0.17975  0.87475  0.77109  Biso   1.000  C
  C81      1.0000 0.23511  0.81919  0.71453  Biso   1.000  C
  C82      1.0000 0.33177  0.79157  0.68948  Biso   1.000  C
  C83      1.0000 0.19874  0.79117  0.68610  Biso   1.000  C
  C84      1.0000 0.19944  0.30271  0.68928  Biso   1.000  C
  C85      1.0000 0.90218  0.87264  0.05258  Biso   1.000  C
  C86      1.0000 0.84642  0.81689  0.10526  Biso   1.000  C
  C87      1.0000 0.81999  0.79046  0.06848  Biso   1.000  C
  C88      1.0000 0.81760  0.78806  0.19671  Biso   1.000  C
  C89      1.0000 0.17687  0.14735  0.77626  Biso   1.000  C
  C90      1.0000 0.23670  0.20718  0.71463  Biso   1.000  C
  C91      1.0000 0.68333  0.65380  0.26529  Biso   1.000  C
  C92      1.0000 0.73909  0.70955  0.21261  Biso   1.000  C
  C93      1.0000 0.76552  0.73599  0.24939  Biso   1.000  C
  C94      1.0000 0.76791  0.73838  0.12116  Biso   1.000  C
  C95      1.0000 0.40864  0.37909  0.54161  Biso   1.000  C
  C96      1.0000 0.34881  0.31926  0.60324  Biso   1.000  C
  O27      1.0000 0.92384  0.06624  0.08926  Biso   1.000  O
  O28      1.0000 0.92623  0.19166  0.96382  Biso   1.000  O
  O29      1.0000 0.92355  0.06516  0.79624  Biso   1.000  O
  O30      1.0000 0.92574  0.19018  0.79345  Biso   1.000  O
  O31      1.0000 0.21901  0.06486  0.79574  Biso   1.000  O
  O32      1.0000 0.48975  0.63213  0.22861  Biso   1.000  O
  O33      1.0000 0.36433  0.62974  0.35405  Biso   1.000  O
  O34      1.0000 0.49082  0.63242  0.52163  Biso   1.000  O
  O35      1.0000 0.36581  0.63023  0.52442  Biso   1.000  O
  O36      1.0000 0.49113  0.33696  0.52213  Biso   1.000  O
  O37      1.0000 0.66167  0.46020  0.22861  Biso   1.000  O
  O38      1.0000 0.65928  0.33478  0.35405  Biso   1.000  O
  O39      1.0000 0.66196  0.46128  0.52163  Biso   1.000  O
  O40      1.0000 0.65977  0.33626  0.52442  Biso   1.000  O
  O41      1.0000 0.36650  0.46158  0.52213  Biso   1.000  O
  O42      1.0000 0.09576  0.89431  0.08926  Biso   1.000  O
  O43      1.0000 0.22118  0.89670  0.96382  Biso   1.000  O
  O44      1.0000 0.09469  0.89402  0.79624  Biso   1.000  O
  O45      1.0000 0.21970  0.89621  0.79345  Biso   1.000  O
  O46      1.0000 0.09438  0.18948  0.79574  Biso   1.000  O
  O47      1.0000 0.04111  0.01159  0.91064  Biso   1.000  O
  O48      1.0000 0.92523  0.89570  0.08826  Biso   1.000  O
  O49      1.0000 0.92365  0.89411  0.96849  Biso   1.000  O
  O50      1.0000 0.54440  0.51485  0.40723  Biso   1.000  O
  O51      1.0000 0.66028  0.63074  0.22961  Biso   1.000  O
  O52      1.0000 0.66186  0.63233  0.34938  Biso   1.000  O
