data_image0
_cell_length_a       18.3083
_cell_length_b       18.3083
_cell_length_c       18.3083
_cell_angle_alpha    60
_cell_angle_beta     60
_cell_angle_gamma    60

_symmetry_space_group_name_H-M    "P 1"
_symmetry_int_tables_number       1

loop_
  _symmetry_equiv_pos_as_xyz
  'x, y, z'

loop_
  _atom_site_label
  _atom_site_occupancy
  _atom_site_fract_x
  _atom_site_fract_y
  _atom_site_fract_z
  _atom_site_thermal_displace_type
  _atom_site_B_iso_or_equiv
  _atom_site_type_symbol
  Zn1      1.0000 0.29342  0.29341  0.11976  Biso   1.000  Zn
  Zn2      1.0000 0.29342  0.29341  0.29341  Biso   1.000  Zn
  Zn3      1.0000 0.11977  0.29341  0.29341  Biso   1.000  Zn
  Zn4      1.0000 0.29342  0.11976  0.29341  Biso   1.000  Zn
  Zn5      1.0000 0.70658  0.70659  0.88024  Biso   1.000  Zn
  Zn6      1.0000 0.70658  0.70659  0.70659  Biso   1.000  Zn
  Zn7      1.0000 0.70658  0.88024  0.70659  Biso   1.000  Zn
  Zn8      1.0000 0.88023  0.70659  0.70659  Biso   1.000  Zn
  H1       1.0000 0.45480  0.45480  0.93480  Biso   1.000  H
  H2       1.0000 0.45480  0.45480  0.15560  Biso   1.000  H
  H3       1.0000 0.93480  0.15560  0.45480  Biso   1.000  H
  H4       1.0000 0.15560  0.93480  0.45480  Biso   1.000  H
  H5       1.0000 0.45480  0.93480  0.15560  Biso   1.000  H
  H6       1.0000 0.45480  0.15560  0.93480  Biso   1.000  H
  H7       1.0000 0.93480  0.45480  0.45480  Biso   1.000  H
  H8       1.0000 0.15560  0.45480  0.45480  Biso   1.000  H
  H9       1.0000 0.45480  0.15560  0.45480  Biso   1.000  H
  H10      1.0000 0.45480  0.93480  0.45480  Biso   1.000  H
  H11      1.0000 0.93480  0.45480  0.15560  Biso   1.000  H
  H12      1.0000 0.15560  0.45480  0.93480  Biso   1.000  H
  H13      1.0000 0.54520  0.54520  0.06520  Biso   1.000  H
  H14      1.0000 0.54520  0.54520  0.84440  Biso   1.000  H
  H15      1.0000 0.84440  0.06520  0.54520  Biso   1.000  H
  H16      1.0000 0.06520  0.84440  0.54520  Biso   1.000  H
  H17      1.0000 0.06520  0.54520  0.84440  Biso   1.000  H
  H18      1.0000 0.84440  0.54520  0.06520  Biso   1.000  H
  H19      1.0000 0.54520  0.06520  0.54520  Biso   1.000  H
  H20      1.0000 0.54520  0.84440  0.54520  Biso   1.000  H
  H21      1.0000 0.84440  0.54520  0.54520  Biso   1.000  H
  H22      1.0000 0.06520  0.54520  0.54520  Biso   1.000  H
  H23      1.0000 0.54520  0.06520  0.84440  Biso   1.000  H
  H24      1.0000 0.54520  0.84440  0.06520  Biso   1.000  H
  C1       1.0000 0.47317  0.47317  0.96131  Biso   1.000  C
  C2       1.0000 0.47317  0.47317  0.09235  Biso   1.000  C
  C3       1.0000 0.96131  0.09235  0.47317  Biso   1.000  C
  C4       1.0000 0.09235  0.96131  0.47317  Biso   1.000  C
  C5       1.0000 0.47317  0.96131  0.09235  Biso   1.000  C
  C6       1.0000 0.47317  0.09235  0.96131  Biso   1.000  C
  C7       1.0000 0.96131  0.47317  0.47317  Biso   1.000  C
  C8       1.0000 0.09235  0.47317  0.47317  Biso   1.000  C
  C9       1.0000 0.47317  0.09235  0.47317  Biso   1.000  C
  C10      1.0000 0.47317  0.96131  0.47317  Biso   1.000  C
  C11      1.0000 0.96131  0.47317  0.09235  Biso   1.000  C
  C12      1.0000 0.09235  0.47317  0.96131  Biso   1.000  C
  C13      1.0000 0.52683  0.52683  0.03869  Biso   1.000  C
  C14      1.0000 0.52683  0.52683  0.90765  Biso   1.000  C
  C15      1.0000 0.90765  0.03869  0.52683  Biso   1.000  C
  C16      1.0000 0.03869  0.90765  0.52683  Biso   1.000  C
  C17      1.0000 0.03869  0.52683  0.90765  Biso   1.000  C
  C18      1.0000 0.90765  0.52683  0.03869  Biso   1.000  C
  C19      1.0000 0.52683  0.03869  0.52683  Biso   1.000  C
  C20      1.0000 0.52683  0.90765  0.52683  Biso   1.000  C
  C21      1.0000 0.90765  0.52683  0.52683  Biso   1.000  C
  C22      1.0000 0.03869  0.52683  0.52683  Biso   1.000  C
  C23      1.0000 0.52683  0.03869  0.90765  Biso   1.000  C
  C24      1.0000 0.52683  0.90765  0.03869  Biso   1.000  C
  C25      1.0000 0.38843  0.38843  0.11157  Biso   1.000  C
  C26      1.0000 0.44641  0.44641  0.05359  Biso   1.000  C
  C27      1.0000 0.11157  0.11157  0.38843  Biso   1.000  C
  C28      1.0000 0.05359  0.05359  0.44641  Biso   1.000  C
  C29      1.0000 0.38843  0.11157  0.11157  Biso   1.000  C
  C30      1.0000 0.44641  0.05359  0.05359  Biso   1.000  C
  C31      1.0000 0.11157  0.38843  0.38843  Biso   1.000  C
  C32      1.0000 0.05359  0.44641  0.44641  Biso   1.000  C
  C33      1.0000 0.38843  0.11157  0.38843  Biso   1.000  C
  C34      1.0000 0.44641  0.05359  0.44641  Biso   1.000  C
  C35      1.0000 0.11157  0.38843  0.11157  Biso   1.000  C
  C36      1.0000 0.05359  0.44641  0.05359  Biso   1.000  C
  C37      1.0000 0.61157  0.61157  0.88843  Biso   1.000  C
  C38      1.0000 0.55359  0.55359  0.94641  Biso   1.000  C
  C39      1.0000 0.88843  0.88843  0.61157  Biso   1.000  C
  C40      1.0000 0.94641  0.94641  0.55359  Biso   1.000  C
  C41      1.0000 0.88843  0.61157  0.88843  Biso   1.000  C
  C42      1.0000 0.94641  0.55359  0.94641  Biso   1.000  C
  C43      1.0000 0.61157  0.88843  0.61157  Biso   1.000  C
  C44      1.0000 0.55359  0.94641  0.55359  Biso   1.000  C
  C45      1.0000 0.88843  0.61157  0.61157  Biso   1.000  C
  C46      1.0000 0.94641  0.55359  0.55359  Biso   1.000  C
  C47      1.0000 0.61157  0.88843  0.88843  Biso   1.000  C
  C48      1.0000 0.55359  0.94641  0.94641  Biso   1.000  C
  O1       1.0000 0.25000  0.25000  0.25000  Biso   1.000  O
  O2       1.0000 0.75000  0.75000  0.75000  Biso   1.000  O
  O3       1.0000 0.36629  0.36629  0.07237  Biso   1.000  O
  O4       1.0000 0.36629  0.36629  0.19505  Biso   1.000  O
  O5       1.0000 0.07237  0.19505  0.36629  Biso   1.000  O
  O6       1.0000 0.19505  0.07237  0.36629  Biso   1.000  O
  O7       1.0000 0.36629  0.07237  0.19505  Biso   1.000  O
  O8       1.0000 0.36629  0.19505  0.07237  Biso   1.000  O
  O9       1.0000 0.07237  0.36629  0.36629  Biso   1.000  O
  O10      1.0000 0.19505  0.36629  0.36629  Biso   1.000  O
  O11      1.0000 0.36629  0.19505  0.36629  Biso   1.000  O
  O12      1.0000 0.36629  0.07237  0.36629  Biso   1.000  O
  O13      1.0000 0.07237  0.36629  0.19505  Biso   1.000  O
  O14      1.0000 0.19505  0.36629  0.07237  Biso   1.000  O
  O15      1.0000 0.63371  0.63371  0.92763  Biso   1.000  O
  O16      1.0000 0.63371  0.63371  0.80495  Biso   1.000  O
  O17      1.0000 0.80495  0.92763  0.63371  Biso   1.000  O
  O18      1.0000 0.92763  0.80495  0.63371  Biso   1.000  O
  O19      1.0000 0.92763  0.63371  0.80495  Biso   1.000  O
  O20      1.0000 0.80495  0.63371  0.92763  Biso   1.000  O
  O21      1.0000 0.63371  0.92763  0.63371  Biso   1.000  O
  O22      1.0000 0.63371  0.80495  0.63371  Biso   1.000  O
  O23      1.0000 0.80495  0.63371  0.63371  Biso   1.000  O
  O24      1.0000 0.92763  0.63371  0.63371  Biso   1.000  O
  O25      1.0000 0.63371  0.92763  0.80495  Biso   1.000  O
  O26      1.0000 0.63371  0.80495  0.92763  Biso   1.000  O
  Zn9      1.0000 0.68325  0.48203  0.35032  Biso   1.000  Zn
  Zn10     1.0000 0.51053  0.48203  0.52304  Biso   1.000  Zn
  Zn11     1.0000 0.51053  0.65475  0.35032  Biso   1.000  Zn
  Zn12     1.0000 0.51053  0.48203  0.35032  Biso   1.000  Zn
  Zn13     1.0000 0.91725  0.07070  0.93899  Biso   1.000  Zn
  Zn14     1.0000 0.08997  0.07070  0.76627  Biso   1.000  Zn
  Zn15     1.0000 0.08997  0.07070  0.93899  Biso   1.000  Zn
  Zn16     1.0000 0.08997  0.89798  0.93899  Biso   1.000  Zn
  H25      1.0000 0.86726  0.32096  0.18925  Biso   1.000  H
  H26      1.0000 0.34485  0.62017  0.71166  Biso   1.000  H
  H27      1.0000 0.34485  0.84338  0.48846  Biso   1.000  H
  H28      1.0000 0.64406  0.32096  0.18925  Biso   1.000  H
  H29      1.0000 0.34485  0.32096  0.71166  Biso   1.000  H
  H30      1.0000 0.64406  0.84338  0.18925  Biso   1.000  H
  H31      1.0000 0.86726  0.62017  0.18925  Biso   1.000  H
  H32      1.0000 0.34485  0.32096  0.48846  Biso   1.000  H
  H33      1.0000 0.34485  0.84338  0.18925  Biso   1.000  H
  H34      1.0000 0.86726  0.32096  0.48846  Biso   1.000  H
  H35      1.0000 0.64406  0.32096  0.71166  Biso   1.000  H
  H36      1.0000 0.34485  0.62017  0.18925  Biso   1.000  H
  H37      1.0000 0.73325  0.93256  0.10006  Biso   1.000  H
  H38      1.0000 0.25566  0.23177  0.57765  Biso   1.000  H
  H39      1.0000 0.25566  0.23177  0.80085  Biso   1.000  H
  H40      1.0000 0.95645  0.70936  0.10006  Biso   1.000  H
  H41      1.0000 0.25566  0.93256  0.57765  Biso   1.000  H
  H42      1.0000 0.95645  0.23177  0.10006  Biso   1.000  H
  H43      1.0000 0.73324  0.23177  0.10006  Biso   1.000  H
  H44      1.0000 0.25566  0.70936  0.80085  Biso   1.000  H
  H45      1.0000 0.25566  0.93256  0.10006  Biso   1.000  H
  H46      1.0000 0.73324  0.23177  0.80085  Biso   1.000  H
  H47      1.0000 0.95645  0.23177  0.57765  Biso   1.000  H
  H48      1.0000 0.25566  0.70936  0.10006  Biso   1.000  H
  C49      1.0000 0.84128  0.30314  0.17143  Biso   1.000  C
  C50      1.0000 0.32703  0.68179  0.68568  Biso   1.000  C
  C51      1.0000 0.32703  0.81740  0.55008  Biso   1.000  C
  C52      1.0000 0.70567  0.30314  0.17143  Biso   1.000  C
  C53      1.0000 0.32703  0.30314  0.68568  Biso   1.000  C
  C54      1.0000 0.70567  0.81740  0.17143  Biso   1.000  C
  C55      1.0000 0.84128  0.68179  0.17143  Biso   1.000  C
  C56      1.0000 0.32703  0.30314  0.55008  Biso   1.000  C
  C57      1.0000 0.32703  0.81740  0.17143  Biso   1.000  C
  C58      1.0000 0.84128  0.30314  0.55008  Biso   1.000  C
  C59      1.0000 0.70567  0.30314  0.68568  Biso   1.000  C
  C60      1.0000 0.32703  0.68179  0.17143  Biso   1.000  C
  C61      1.0000 0.75922  0.87095  0.11788  Biso   1.000  C
  C62      1.0000 0.27348  0.24959  0.60363  Biso   1.000  C
  C63      1.0000 0.27348  0.24959  0.73924  Biso   1.000  C
  C64      1.0000 0.89483  0.73534  0.11788  Biso   1.000  C
  C65      1.0000 0.27348  0.87095  0.60363  Biso   1.000  C
  C66      1.0000 0.89483  0.24959  0.11788  Biso   1.000  C
  C67      1.0000 0.75922  0.24959  0.11788  Biso   1.000  C
  C68      1.0000 0.27348  0.73534  0.73924  Biso   1.000  C
  C69      1.0000 0.27348  0.87095  0.11788  Biso   1.000  C
  C70      1.0000 0.75922  0.24959  0.73924  Biso   1.000  C
  C71      1.0000 0.89483  0.24959  0.60363  Biso   1.000  C
  C72      1.0000 0.27348  0.73534  0.11788  Biso   1.000  C
  C73      1.0000 0.69177  0.38715  0.25544  Biso   1.000  C
  C74      1.0000 0.74901  0.32992  0.19821  Biso   1.000  C
  C75      1.0000 0.41565  0.66327  0.53156  Biso   1.000  C
  C76      1.0000 0.35842  0.72051  0.58880  Biso   1.000  C
  C77      1.0000 0.41565  0.38715  0.53156  Biso   1.000  C
  C78      1.0000 0.35842  0.32992  0.58880  Biso   1.000  C
  C79      1.0000 0.69177  0.66327  0.25544  Biso   1.000  C
  C80      1.0000 0.74901  0.72051  0.19821  Biso   1.000  C
  C81      1.0000 0.41565  0.66327  0.25544  Biso   1.000  C
  C82      1.0000 0.35842  0.72051  0.19821  Biso   1.000  C
  C83      1.0000 0.69177  0.38715  0.53156  Biso   1.000  C
  C84      1.0000 0.74901  0.32992  0.58880  Biso   1.000  C
  C85      1.0000 0.90873  0.88946  0.03387  Biso   1.000  C
  C86      1.0000 0.85150  0.83223  0.09110  Biso   1.000  C
  C87      1.0000 0.18485  0.16558  0.75775  Biso   1.000  C
  C88      1.0000 0.24209  0.22282  0.70052  Biso   1.000  C
  C89      1.0000 0.18485  0.88946  0.75775  Biso   1.000  C
  C90      1.0000 0.24209  0.83223  0.70052  Biso   1.000  C
  C91      1.0000 0.90873  0.16558  0.03387  Biso   1.000  C
  C92      1.0000 0.85150  0.22282  0.09110  Biso   1.000  C
  C93      1.0000 0.18485  0.88946  0.03387  Biso   1.000  C
  C94      1.0000 0.24209  0.83223  0.09110  Biso   1.000  C
  C95      1.0000 0.90873  0.16558  0.75775  Biso   1.000  C
  C96      1.0000 0.85150  0.22282  0.70052  Biso   1.000  C
  O27      1.0000 0.55371  0.52521  0.39350  Biso   1.000  O
  O28      1.0000 0.04679  0.02752  0.89581  Biso   1.000  O
  O29      1.0000 0.73265  0.40975  0.27804  Biso   1.000  O
  O30      1.0000 0.43825  0.57720  0.57244  Biso   1.000  O
  O31      1.0000 0.43825  0.70415  0.44549  Biso   1.000  O
  O32      1.0000 0.60570  0.40975  0.27804  Biso   1.000  O
  O33      1.0000 0.43825  0.40975  0.57244  Biso   1.000  O
  O34      1.0000 0.60570  0.70415  0.27804  Biso   1.000  O
  O35      1.0000 0.73265  0.57720  0.27804  Biso   1.000  O
  O36      1.0000 0.43825  0.40975  0.44549  Biso   1.000  O
  O37      1.0000 0.43825  0.70415  0.27804  Biso   1.000  O
  O38      1.0000 0.73265  0.40975  0.44549  Biso   1.000  O
  O39      1.0000 0.60570  0.40975  0.57244  Biso   1.000  O
  O40      1.0000 0.43825  0.57720  0.27804  Biso   1.000  O
  O41      1.0000 0.86785  0.97553  0.01127  Biso   1.000  O
  O42      1.0000 0.16226  0.14299  0.71687  Biso   1.000  O
  O43      1.0000 0.16226  0.14299  0.84382  Biso   1.000  O
  O44      1.0000 0.99480  0.84858  0.01127  Biso   1.000  O
  O45      1.0000 0.16226  0.97553  0.71687  Biso   1.000  O
  O46      1.0000 0.99480  0.14299  0.01127  Biso   1.000  O
  O47      1.0000 0.86785  0.14299  0.01127  Biso   1.000  O
  O48      1.0000 0.16226  0.84858  0.84382  Biso   1.000  O
  O49      1.0000 0.16226  0.97553  0.01127  Biso   1.000  O
  O50      1.0000 0.86785  0.14299  0.84382  Biso   1.000  O
  O51      1.0000 0.99480  0.14299  0.71687  Biso   1.000  O
  O52      1.0000 0.16226  0.84858  0.01127  Biso   1.000  O
