data_image0
_cell_length_a       18.2888
_cell_length_b       18.2888
_cell_length_c       18.2888
_cell_angle_alpha    60
_cell_angle_beta     60
_cell_angle_gamma    60

_symmetry_space_group_name_H-M    "P 1"
_symmetry_int_tables_number       1

loop_
  _symmetry_equiv_pos_as_xyz
  'x, y, z'

loop_
  _atom_site_label
  _atom_site_occupancy
  _atom_site_fract_x
  _atom_site_fract_y
  _atom_site_fract_z
  _atom_site_thermal_displace_type
  _atom_site_B_iso_or_equiv
  _atom_site_type_symbol
  C1       1.0000 0.29344  0.29345  0.11966  Biso   1.000  C
  C2       1.0000 0.29344  0.29345  0.29345  Biso   1.000  C
  C3       1.0000 0.11965  0.29345  0.29345  Biso   1.000  C
  C4       1.0000 0.29344  0.11966  0.29345  Biso   1.000  C
  C5       1.0000 0.70655  0.70656  0.88034  Biso   1.000  C
  C6       1.0000 0.70656  0.70655  0.70655  Biso   1.000  C
  C7       1.0000 0.70655  0.88034  0.70656  Biso   1.000  C
  C8       1.0000 0.88035  0.70655  0.70655  Biso   1.000  C
  C9       1.0000 0.45490  0.45490  0.93490  Biso   1.000  C
  C10      1.0000 0.45490  0.45490  0.15530  Biso   1.000  C
  C11      1.0000 0.93490  0.15530  0.45490  Biso   1.000  C
  C12      1.0000 0.15530  0.93490  0.45490  Biso   1.000  C
  C13      1.0000 0.45490  0.93490  0.15530  Biso   1.000  C
  C14      1.0000 0.45490  0.15530  0.93490  Biso   1.000  C
  C15      1.0000 0.93490  0.45490  0.45490  Biso   1.000  C
  C16      1.0000 0.15530  0.45490  0.45490  Biso   1.000  C
  C17      1.0000 0.45490  0.15530  0.45490  Biso   1.000  C
  C18      1.0000 0.45490  0.93490  0.45490  Biso   1.000  C
  C19      1.0000 0.93490  0.45490  0.15530  Biso   1.000  C
  C20      1.0000 0.15530  0.45490  0.93490  Biso   1.000  C
  C21      1.0000 0.54510  0.54510  0.06510  Biso   1.000  C
  C22      1.0000 0.54510  0.54510  0.84470  Biso   1.000  C
  C23      1.0000 0.84470  0.06510  0.54510  Biso   1.000  C
  C24      1.0000 0.06510  0.84470  0.54510  Biso   1.000  C
  C25      1.0000 0.06510  0.54510  0.84470  Biso   1.000  C
  C26      1.0000 0.84470  0.54510  0.06510  Biso   1.000  C
  C27      1.0000 0.54510  0.06510  0.54510  Biso   1.000  C
  C28      1.0000 0.54510  0.84470  0.54510  Biso   1.000  C
  C29      1.0000 0.84470  0.54510  0.54510  Biso   1.000  C
  C30      1.0000 0.06510  0.54510  0.54510  Biso   1.000  C
  C31      1.0000 0.54510  0.06510  0.84470  Biso   1.000  C
  C32      1.0000 0.54510  0.84470  0.06510  Biso   1.000  C
  C33      1.0000 0.47314  0.47314  0.96174  Biso   1.000  C
  C34      1.0000 0.47314  0.47314  0.09198  Biso   1.000  C
  C35      1.0000 0.96174  0.09198  0.47314  Biso   1.000  C
  C36      1.0000 0.09198  0.96174  0.47314  Biso   1.000  C
  C37      1.0000 0.47314  0.96174  0.09198  Biso   1.000  C
  C38      1.0000 0.47314  0.09198  0.96174  Biso   1.000  C
  C39      1.0000 0.96174  0.47314  0.47314  Biso   1.000  C
  C40      1.0000 0.09198  0.47314  0.47314  Biso   1.000  C
  C41      1.0000 0.47314  0.09198  0.47314  Biso   1.000  C
  C42      1.0000 0.47314  0.96174  0.47314  Biso   1.000  C
  C43      1.0000 0.96174  0.47314  0.09198  Biso   1.000  C
  C44      1.0000 0.09198  0.47314  0.96174  Biso   1.000  C
  C45      1.0000 0.52686  0.52686  0.03826  Biso   1.000  C
  C46      1.0000 0.52686  0.52686  0.90802  Biso   1.000  C
  C47      1.0000 0.90802  0.03826  0.52686  Biso   1.000  C
  C48      1.0000 0.03826  0.90802  0.52686  Biso   1.000  C
  C49      1.0000 0.03826  0.52686  0.90802  Biso   1.000  C
  C50      1.0000 0.90802  0.52686  0.03826  Biso   1.000  C
  C51      1.0000 0.52686  0.03826  0.52686  Biso   1.000  C
  C52      1.0000 0.52686  0.90802  0.52686  Biso   1.000  C
  C53      1.0000 0.90802  0.52686  0.52686  Biso   1.000  C
  C54      1.0000 0.03826  0.52686  0.52686  Biso   1.000  C
  C55      1.0000 0.52686  0.03826  0.90802  Biso   1.000  C
  C56      1.0000 0.52686  0.90802  0.03826  Biso   1.000  C
  C57      1.0000 0.38849  0.38849  0.11151  Biso   1.000  C
  C58      1.0000 0.44624  0.44624  0.05376  Biso   1.000  C
  C59      1.0000 0.11151  0.11151  0.38849  Biso   1.000  C
  C60      1.0000 0.05376  0.05376  0.44624  Biso   1.000  C
  C61      1.0000 0.38849  0.11151  0.11151  Biso   1.000  C
  C62      1.0000 0.44624  0.05376  0.05376  Biso   1.000  C
  C63      1.0000 0.11151  0.38849  0.38849  Biso   1.000  C
  C64      1.0000 0.05376  0.44624  0.44624  Biso   1.000  C
  C65      1.0000 0.38849  0.11151  0.38849  Biso   1.000  C
  C66      1.0000 0.44624  0.05376  0.44624  Biso   1.000  C
  C67      1.0000 0.11151  0.38849  0.11151  Biso   1.000  C
  C68      1.0000 0.05376  0.44624  0.05376  Biso   1.000  C
  C69      1.0000 0.61151  0.61151  0.88849  Biso   1.000  C
  C70      1.0000 0.55376  0.55376  0.94624  Biso   1.000  C
  C71      1.0000 0.88849  0.88849  0.61151  Biso   1.000  C
  C72      1.0000 0.94624  0.94624  0.55376  Biso   1.000  C
  C73      1.0000 0.88849  0.61151  0.88849  Biso   1.000  C
  C74      1.0000 0.94624  0.55376  0.94624  Biso   1.000  C
  C75      1.0000 0.61151  0.88849  0.61151  Biso   1.000  C
  C76      1.0000 0.55376  0.94624  0.55376  Biso   1.000  C
  C77      1.0000 0.88849  0.61151  0.61151  Biso   1.000  C
  C78      1.0000 0.94624  0.55376  0.55376  Biso   1.000  C
  C79      1.0000 0.61151  0.88849  0.88849  Biso   1.000  C
  C80      1.0000 0.55376  0.94624  0.94624  Biso   1.000  C
  C81      1.0000 0.25000  0.25000  0.25000  Biso   1.000  C
  C82      1.0000 0.75000  0.75000  0.75000  Biso   1.000  C
  C83      1.0000 0.36620  0.36620  0.07286  Biso   1.000  C
  C84      1.0000 0.36620  0.36620  0.19474  Biso   1.000  C
  C85      1.0000 0.07286  0.19474  0.36620  Biso   1.000  C
  C86      1.0000 0.19474  0.07286  0.36620  Biso   1.000  C
  C87      1.0000 0.36620  0.07286  0.19474  Biso   1.000  C
  C88      1.0000 0.36620  0.19474  0.07286  Biso   1.000  C
  C89      1.0000 0.07286  0.36620  0.36620  Biso   1.000  C
  C90      1.0000 0.19474  0.36620  0.36620  Biso   1.000  C
  C91      1.0000 0.36620  0.19474  0.36620  Biso   1.000  C
  C92      1.0000 0.36620  0.07286  0.36620  Biso   1.000  C
  C93      1.0000 0.07286  0.36620  0.19474  Biso   1.000  C
  C94      1.0000 0.19474  0.36620  0.07286  Biso   1.000  C
  C95      1.0000 0.63380  0.63380  0.92714  Biso   1.000  C
  C96      1.0000 0.63380  0.63380  0.80526  Biso   1.000  C
  C97      1.0000 0.80526  0.92714  0.63380  Biso   1.000  C
  C98      1.0000 0.92714  0.80526  0.63380  Biso   1.000  C
  C99      1.0000 0.92714  0.63380  0.80526  Biso   1.000  C
  C100     1.0000 0.80526  0.63380  0.92714  Biso   1.000  C
  C101     1.0000 0.63380  0.92714  0.63380  Biso   1.000  C
  C102     1.0000 0.63380  0.80526  0.63380  Biso   1.000  C
  C103     1.0000 0.80526  0.63380  0.63380  Biso   1.000  C
  C104     1.0000 0.92714  0.63380  0.63380  Biso   1.000  C
  C105     1.0000 0.63380  0.92714  0.80526  Biso   1.000  C
  C106     1.0000 0.63380  0.80526  0.92714  Biso   1.000  C
  O1       1.0000 0.59371  0.07795  0.71998  Biso   1.000  O
  O2       1.0000 0.59371  0.25204  0.71998  Biso   1.000  O
  O3       1.0000 0.41962  0.25204  0.71998  Biso   1.000  O
  O4       1.0000 0.59371  0.25204  0.54589  Biso   1.000  O
  O5       1.0000 0.01011  0.66385  0.13179  Biso   1.000  O
  O6       1.0000 0.01011  0.83794  0.13179  Biso   1.000  O
  O7       1.0000 0.18420  0.66385  0.13179  Biso   1.000  O
  O8       1.0000 0.01011  0.66385  0.30588  Biso   1.000  O
  O9       1.0000 0.45587  0.89209  0.88183  Biso   1.000  O
  O10      1.0000 0.75556  0.41389  0.58214  Biso   1.000  O
  O11      1.0000 0.23376  0.11420  0.88183  Biso   1.000  O
  O12      1.0000 0.75556  0.41389  0.36003  Biso   1.000  O
  O13      1.0000 0.23376  0.41389  0.58214  Biso   1.000  O
  O14      1.0000 0.75556  0.11420  0.88183  Biso   1.000  O
  O15      1.0000 0.45587  0.41389  0.36003  Biso   1.000  O
  O16      1.0000 0.75556  0.89209  0.88183  Biso   1.000  O
  O17      1.0000 0.75556  0.11420  0.36003  Biso   1.000  O
  O18      1.0000 0.45587  0.41389  0.88183  Biso   1.000  O
  O19      1.0000 0.75556  0.89209  0.58214  Biso   1.000  O
  O20      1.0000 0.23376  0.41389  0.88183  Biso   1.000  O
  O21      1.0000 0.14795  0.50200  0.96994  Biso   1.000  O
  O22      1.0000 0.84826  0.02380  0.26963  Biso   1.000  O
  O23      1.0000 0.37006  0.50200  0.96994  Biso   1.000  O
  O24      1.0000 0.84826  0.80169  0.49173  Biso   1.000  O
  O25      1.0000 0.37006  0.50200  0.26963  Biso   1.000  O
  O26      1.0000 0.84826  0.02380  0.96994  Biso   1.000  O
  O27      1.0000 0.14795  0.50200  0.49173  Biso   1.000  O
  O28      1.0000 0.84826  0.80169  0.96994  Biso   1.000  O
  O29      1.0000 0.84826  0.50200  0.49173  Biso   1.000  O
  O30      1.0000 0.14795  0.02380  0.96994  Biso   1.000  O
  O31      1.0000 0.84826  0.50200  0.26963  Biso   1.000  O
  O32      1.0000 0.37006  0.80169  0.96994  Biso   1.000  O
  O33      1.0000 0.39251  0.91870  0.90020  Biso   1.000  O
  O34      1.0000 0.77393  0.43226  0.51879  Biso   1.000  O
  O35      1.0000 0.26037  0.05085  0.90020  Biso   1.000  O
  O36      1.0000 0.77393  0.43226  0.38664  Biso   1.000  O
  O37      1.0000 0.26037  0.43226  0.51879  Biso   1.000  O
  O38      1.0000 0.77393  0.05085  0.90020  Biso   1.000  O
  O39      1.0000 0.39251  0.43226  0.38664  Biso   1.000  O
  O40      1.0000 0.77393  0.91870  0.90020  Biso   1.000  O
  O41      1.0000 0.77393  0.05085  0.38664  Biso   1.000  O
  O42      1.0000 0.39251  0.43226  0.90020  Biso   1.000  O
  O43      1.0000 0.77393  0.91870  0.51879  Biso   1.000  O
  O44      1.0000 0.26037  0.43226  0.90020  Biso   1.000  O
  O45      1.0000 0.21130  0.48363  0.95157  Biso   1.000  O
  O46      1.0000 0.82989  0.99718  0.33298  Biso   1.000  O
  O47      1.0000 0.34345  0.48363  0.95157  Biso   1.000  O
  O48      1.0000 0.82989  0.86504  0.46512  Biso   1.000  O
  O49      1.0000 0.34345  0.48363  0.33298  Biso   1.000  O
  O50      1.0000 0.82989  0.99718  0.95157  Biso   1.000  O
  O51      1.0000 0.21130  0.48363  0.46512  Biso   1.000  O
  O52      1.0000 0.82989  0.86504  0.95157  Biso   1.000  O
  O53      1.0000 0.82989  0.48363  0.46512  Biso   1.000  O
  O54      1.0000 0.21130  0.99718  0.95157  Biso   1.000  O
  O55      1.0000 0.82989  0.48363  0.33298  Biso   1.000  O
  O56      1.0000 0.34345  0.86504  0.95157  Biso   1.000  O
  O57      1.0000 0.41141  0.06974  0.81524  Biso   1.000  O
  O58      1.0000 0.35346  0.01180  0.87318  Biso   1.000  O
  O59      1.0000 0.68896  0.34730  0.53768  Biso   1.000  O
  O60      1.0000 0.74691  0.40524  0.47974  Biso   1.000  O
  O61      1.0000 0.41141  0.34730  0.53768  Biso   1.000  O
  O62      1.0000 0.35346  0.40524  0.47974  Biso   1.000  O
  O63      1.0000 0.68896  0.06974  0.81524  Biso   1.000  O
  O64      1.0000 0.74691  0.01180  0.87318  Biso   1.000  O
  O65      1.0000 0.68896  0.06974  0.53768  Biso   1.000  O
  O66      1.0000 0.74691  0.01180  0.47974  Biso   1.000  O
  O67      1.0000 0.41141  0.34730  0.81524  Biso   1.000  O
  O68      1.0000 0.35346  0.40524  0.87318  Biso   1.000  O
  O69      1.0000 0.19241  0.56859  0.03653  Biso   1.000  O
  O70      1.0000 0.25035  0.51065  0.97859  Biso   1.000  O
  O71      1.0000 0.91485  0.84615  0.31409  Biso   1.000  O
  O72      1.0000 0.85691  0.90409  0.37203  Biso   1.000  O
  O73      1.0000 0.19241  0.56859  0.31409  Biso   1.000  O
  O74      1.0000 0.25035  0.51065  0.37203  Biso   1.000  O
  O75      1.0000 0.91485  0.84615  0.03653  Biso   1.000  O
  O76      1.0000 0.85691  0.90409  0.97859  Biso   1.000  O
  O77      1.0000 0.91485  0.56859  0.31409  Biso   1.000  O
  O78      1.0000 0.85691  0.51065  0.37203  Biso   1.000  O
  O79      1.0000 0.19241  0.84615  0.03653  Biso   1.000  O
  O80      1.0000 0.25035  0.90409  0.97859  Biso   1.000  O
  O81      1.0000 0.55019  0.20852  0.67646  Biso   1.000  O
  O82      1.0000 0.05363  0.70737  0.17531  Biso   1.000  O
  O83      1.0000 0.49516  0.03045  0.79301  Biso   1.000  O
  O84      1.0000 0.66673  0.32507  0.62143  Biso   1.000  O
  O85      1.0000 0.37212  0.15349  0.79301  Biso   1.000  O
  O86      1.0000 0.66673  0.32507  0.49839  Biso   1.000  O
  O87      1.0000 0.37212  0.32507  0.62143  Biso   1.000  O
  O88      1.0000 0.66673  0.15349  0.79301  Biso   1.000  O
  O89      1.0000 0.49516  0.32507  0.49839  Biso   1.000  O
  O90      1.0000 0.66673  0.03045  0.79301  Biso   1.000  O
  O91      1.0000 0.66673  0.15349  0.49839  Biso   1.000  O
  O92      1.0000 0.49516  0.32507  0.79301  Biso   1.000  O
  O93      1.0000 0.66673  0.03045  0.62143  Biso   1.000  O
  O94      1.0000 0.37212  0.32507  0.79301  Biso   1.000  O
  O95      1.0000 0.10866  0.59082  0.05876  Biso   1.000  O
  O96      1.0000 0.93709  0.88544  0.23034  Biso   1.000  O
  O97      1.0000 0.23170  0.59082  0.05876  Biso   1.000  O
  O98      1.0000 0.93709  0.76240  0.35338  Biso   1.000  O
  O99      1.0000 0.23170  0.59082  0.23034  Biso   1.000  O
  O100     1.0000 0.93709  0.88544  0.05876  Biso   1.000  O
  O101     1.0000 0.10866  0.59082  0.35338  Biso   1.000  O
  O102     1.0000 0.93709  0.76240  0.05876  Biso   1.000  O
  O103     1.0000 0.93709  0.59082  0.35338  Biso   1.000  O
  O104     1.0000 0.10866  0.88544  0.05876  Biso   1.000  O
  O105     1.0000 0.93709  0.59082  0.23034  Biso   1.000  O
  O106     1.0000 0.23170  0.76240  0.05876  Biso   1.000  O
