data_image0
_cell_length_a       18.2704
_cell_length_b       18.2704
_cell_length_c       18.2704
_cell_angle_alpha    60
_cell_angle_beta     60
_cell_angle_gamma    60

_symmetry_space_group_name_H-M    "P 1"
_symmetry_int_tables_number       1

loop_
  _symmetry_equiv_pos_as_xyz
  'x, y, z'

loop_
  _atom_site_label
  _atom_site_occupancy
  _atom_site_fract_x
  _atom_site_fract_y
  _atom_site_fract_z
  _atom_site_thermal_displace_type
  _atom_site_B_iso_or_equiv
  _atom_site_type_symbol
  C1       1.0000 0.29350  0.29349  0.11952  Biso   1.000  C
  C2       1.0000 0.29350  0.29349  0.29349  Biso   1.000  C
  C3       1.0000 0.11953  0.29349  0.29349  Biso   1.000  C
  C4       1.0000 0.29350  0.11952  0.29349  Biso   1.000  C
  C5       1.0000 0.70650  0.70651  0.88048  Biso   1.000  C
  C6       1.0000 0.70650  0.70651  0.70651  Biso   1.000  C
  C7       1.0000 0.70650  0.88048  0.70651  Biso   1.000  C
  C8       1.0000 0.88047  0.70651  0.70651  Biso   1.000  C
  C9       1.0000 0.45540  0.45540  0.93560  Biso   1.000  C
  C10      1.0000 0.45540  0.45540  0.15360  Biso   1.000  C
  C11      1.0000 0.93560  0.15360  0.45540  Biso   1.000  C
  C12      1.0000 0.15360  0.93560  0.45540  Biso   1.000  C
  C13      1.0000 0.45540  0.93560  0.15360  Biso   1.000  C
  C14      1.0000 0.45540  0.15360  0.93560  Biso   1.000  C
  C15      1.0000 0.93560  0.45540  0.45540  Biso   1.000  C
  C16      1.0000 0.15360  0.45540  0.45540  Biso   1.000  C
  C17      1.0000 0.45540  0.15360  0.45540  Biso   1.000  C
  C18      1.0000 0.45540  0.93560  0.45540  Biso   1.000  C
  C19      1.0000 0.93560  0.45540  0.15360  Biso   1.000  C
  C20      1.0000 0.15360  0.45540  0.93560  Biso   1.000  C
  C21      1.0000 0.54460  0.54460  0.06440  Biso   1.000  C
  C22      1.0000 0.54460  0.54460  0.84640  Biso   1.000  C
  C23      1.0000 0.84640  0.06440  0.54460  Biso   1.000  C
  C24      1.0000 0.06440  0.84640  0.54460  Biso   1.000  C
  C25      1.0000 0.06440  0.54460  0.84640  Biso   1.000  C
  C26      1.0000 0.84640  0.54460  0.06440  Biso   1.000  C
  C27      1.0000 0.54460  0.06440  0.54460  Biso   1.000  C
  C28      1.0000 0.54460  0.84640  0.54460  Biso   1.000  C
  C29      1.0000 0.84640  0.54460  0.54460  Biso   1.000  C
  C30      1.0000 0.06440  0.54460  0.54460  Biso   1.000  C
  C31      1.0000 0.54460  0.06440  0.84640  Biso   1.000  C
  C32      1.0000 0.54460  0.84640  0.06440  Biso   1.000  C
  C33      1.0000 0.47338  0.47338  0.96238  Biso   1.000  C
  C34      1.0000 0.47338  0.47338  0.09086  Biso   1.000  C
  C35      1.0000 0.96238  0.09086  0.47338  Biso   1.000  C
  C36      1.0000 0.09086  0.96238  0.47338  Biso   1.000  C
  C37      1.0000 0.47338  0.96238  0.09086  Biso   1.000  C
  C38      1.0000 0.47338  0.09086  0.96238  Biso   1.000  C
  C39      1.0000 0.96238  0.47338  0.47338  Biso   1.000  C
  C40      1.0000 0.09086  0.47338  0.47338  Biso   1.000  C
  C41      1.0000 0.47338  0.09086  0.47338  Biso   1.000  C
  C42      1.0000 0.47338  0.96238  0.47338  Biso   1.000  C
  C43      1.0000 0.96238  0.47338  0.09086  Biso   1.000  C
  C44      1.0000 0.09086  0.47338  0.96238  Biso   1.000  C
  C45      1.0000 0.52662  0.52662  0.03762  Biso   1.000  C
  C46      1.0000 0.52662  0.52662  0.90914  Biso   1.000  C
  C47      1.0000 0.90914  0.03762  0.52662  Biso   1.000  C
  C48      1.0000 0.03762  0.90914  0.52662  Biso   1.000  C
  C49      1.0000 0.03762  0.52662  0.90914  Biso   1.000  C
  C50      1.0000 0.90914  0.52662  0.03762  Biso   1.000  C
  C51      1.0000 0.52662  0.03762  0.52662  Biso   1.000  C
  C52      1.0000 0.52662  0.90914  0.52662  Biso   1.000  C
  C53      1.0000 0.90914  0.52662  0.52662  Biso   1.000  C
  C54      1.0000 0.03762  0.52662  0.52662  Biso   1.000  C
  C55      1.0000 0.52662  0.03762  0.90914  Biso   1.000  C
  C56      1.0000 0.52662  0.90914  0.03762  Biso   1.000  C
  C57      1.0000 0.38861  0.38861  0.11139  Biso   1.000  C
  C58      1.0000 0.44619  0.44619  0.05381  Biso   1.000  C
  C59      1.0000 0.11139  0.11139  0.38861  Biso   1.000  C
  C60      1.0000 0.05381  0.05381  0.44619  Biso   1.000  C
  C61      1.0000 0.38861  0.11139  0.11139  Biso   1.000  C
  C62      1.0000 0.44619  0.05381  0.05381  Biso   1.000  C
  C63      1.0000 0.11139  0.38861  0.38861  Biso   1.000  C
  C64      1.0000 0.05381  0.44619  0.44619  Biso   1.000  C
  C65      1.0000 0.38861  0.11139  0.38861  Biso   1.000  C
  C66      1.0000 0.44619  0.05381  0.44619  Biso   1.000  C
  C67      1.0000 0.11139  0.38861  0.11139  Biso   1.000  C
  C68      1.0000 0.05381  0.44619  0.05381  Biso   1.000  C
  C69      1.0000 0.61139  0.61139  0.88861  Biso   1.000  C
  C70      1.0000 0.55381  0.55381  0.94619  Biso   1.000  C
  C71      1.0000 0.88861  0.88861  0.61139  Biso   1.000  C
  C72      1.0000 0.94619  0.94619  0.55381  Biso   1.000  C
  C73      1.0000 0.88861  0.61139  0.88861  Biso   1.000  C
  C74      1.0000 0.94619  0.55381  0.94619  Biso   1.000  C
  C75      1.0000 0.61139  0.88861  0.61139  Biso   1.000  C
  C76      1.0000 0.55381  0.94619  0.55381  Biso   1.000  C
  C77      1.0000 0.88861  0.61139  0.61139  Biso   1.000  C
  C78      1.0000 0.94619  0.55381  0.55381  Biso   1.000  C
  C79      1.0000 0.61139  0.88861  0.88861  Biso   1.000  C
  C80      1.0000 0.55381  0.94619  0.94619  Biso   1.000  C
  C81      1.0000 0.25000  0.25000  0.25000  Biso   1.000  C
  C82      1.0000 0.75000  0.75000  0.75000  Biso   1.000  C
  C83      1.0000 0.36607  0.36607  0.07299  Biso   1.000  C
  C84      1.0000 0.36607  0.36607  0.19487  Biso   1.000  C
  C85      1.0000 0.07299  0.19487  0.36607  Biso   1.000  C
  C86      1.0000 0.19487  0.07299  0.36607  Biso   1.000  C
  C87      1.0000 0.36607  0.07299  0.19487  Biso   1.000  C
  C88      1.0000 0.36607  0.19487  0.07299  Biso   1.000  C
  C89      1.0000 0.07299  0.36607  0.36607  Biso   1.000  C
  C90      1.0000 0.19487  0.36607  0.36607  Biso   1.000  C
  C91      1.0000 0.36607  0.19487  0.36607  Biso   1.000  C
  C92      1.0000 0.36607  0.07299  0.36607  Biso   1.000  C
  C93      1.0000 0.07299  0.36607  0.19487  Biso   1.000  C
  C94      1.0000 0.19487  0.36607  0.07299  Biso   1.000  C
  C95      1.0000 0.63393  0.63393  0.92701  Biso   1.000  C
  C96      1.0000 0.63393  0.63393  0.80513  Biso   1.000  C
  C97      1.0000 0.80513  0.92701  0.63393  Biso   1.000  C
  C98      1.0000 0.92701  0.80513  0.63393  Biso   1.000  C
  C99      1.0000 0.92701  0.63393  0.80513  Biso   1.000  C
  C100     1.0000 0.80513  0.63393  0.92701  Biso   1.000  C
  C101     1.0000 0.63393  0.92701  0.63393  Biso   1.000  C
  C102     1.0000 0.63393  0.80513  0.63393  Biso   1.000  C
  C103     1.0000 0.80513  0.63393  0.63393  Biso   1.000  C
  C104     1.0000 0.92701  0.63393  0.63393  Biso   1.000  C
  C105     1.0000 0.63393  0.92701  0.80513  Biso   1.000  C
  C106     1.0000 0.63393  0.80513  0.92701  Biso   1.000  C
  O1       1.0000 0.07475  0.59016  0.58831  Biso   1.000  O
  O2       1.0000 0.48815  0.17664  0.00190  Biso   1.000  O
  O3       1.0000 0.48815  0.00212  0.00190  Biso   1.000  O
  O4       1.0000 0.07475  0.41564  0.58831  Biso   1.000  O
  O5       1.0000 0.07429  0.59050  0.41355  Biso   1.000  O
  O6       1.0000 0.89984  0.59031  0.58841  Biso   1.000  O
  O7       1.0000 0.48861  0.00178  0.17666  Biso   1.000  O
  O8       1.0000 0.66307  0.00197  0.00180  Biso   1.000  O
  O9       1.0000 0.23960  0.23432  0.44502  Biso   1.000  O
  O10      1.0000 0.23120  0.45076  0.23372  Biso   1.000  O
  O11      1.0000 0.93635  0.23541  0.74814  Biso   1.000  O
  O12      1.0000 0.71721  0.44824  0.75044  Biso   1.000  O
  O13      1.0000 0.24040  0.45023  0.74565  Biso   1.000  O
  O14      1.0000 0.32331  0.84235  0.14519  Biso   1.000  O
  O15      1.0000 0.33170  0.83915  0.35649  Biso   1.000  O
  O16      1.0000 0.62656  0.84327  0.84207  Biso   1.000  O
  O17      1.0000 0.84569  0.83927  0.83977  Biso   1.000  O
  O18      1.0000 0.32249  0.35967  0.84456  Biso   1.000  O
  O19      1.0000 0.32331  0.35795  0.14519  Biso   1.000  O
  O20      1.0000 0.33170  0.14152  0.35649  Biso   1.000  O
  O21      1.0000 0.62656  0.35687  0.84207  Biso   1.000  O
  O22      1.0000 0.84570  0.14404  0.83977  Biso   1.000  O
  O23      1.0000 0.32250  0.14205  0.84456  Biso   1.000  O
  O24      1.0000 0.23959  0.74993  0.44502  Biso   1.000  O
  O25      1.0000 0.23120  0.75313  0.23372  Biso   1.000  O
  O26      1.0000 0.93634  0.74901  0.74814  Biso   1.000  O
  O27      1.0000 0.71721  0.75300  0.75044  Biso   1.000  O
  O28      1.0000 0.24041  0.23261  0.74565  Biso   1.000  O
  O29      1.0000 0.71809  0.75182  0.44711  Biso   1.000  O
  O30      1.0000 0.93153  0.75293  0.23143  Biso   1.000  O
  O31      1.0000 0.84481  0.84046  0.14309  Biso   1.000  O
  O32      1.0000 0.63137  0.83935  0.35878  Biso   1.000  O
  O33      1.0000 0.16884  0.40714  0.40869  Biso   1.000  O
  O34      1.0000 0.22831  0.34916  0.34760  Biso   1.000  O
  O35      1.0000 0.25736  0.25997  0.38294  Biso   1.000  O
  O36      1.0000 0.25056  0.38878  0.25967  Biso   1.000  O
  O37      1.0000 0.89034  0.41032  0.68526  Biso   1.000  O
  O38      1.0000 0.83636  0.35194  0.74046  Biso   1.000  O
  O39      1.0000 0.87428  0.26155  0.76611  Biso   1.000  O
  O40      1.0000 0.74485  0.38636  0.76790  Biso   1.000  O
  O41      1.0000 0.25627  0.38826  0.76571  Biso   1.000  O
  O42      1.0000 0.39406  0.90811  0.18152  Biso   1.000  O
  O43      1.0000 0.33458  0.84853  0.24260  Biso   1.000  O
  O44      1.0000 0.30555  0.82369  0.20727  Biso   1.000  O
  O45      1.0000 0.31234  0.82248  0.33054  Biso   1.000  O
  O46      1.0000 0.67256  0.90933  0.90495  Biso   1.000  O
  O47      1.0000 0.72654  0.85215  0.84975  Biso   1.000  O
  O48      1.0000 0.68863  0.82530  0.82410  Biso   1.000  O
  O49      1.0000 0.81805  0.82251  0.82231  Biso   1.000  O
  O50      1.0000 0.30662  0.33362  0.82450  Biso   1.000  O
  O51      1.0000 0.39406  0.18514  0.18152  Biso   1.000  O
  O52      1.0000 0.33459  0.24312  0.24260  Biso   1.000  O
  O53      1.0000 0.30555  0.33230  0.20727  Biso   1.000  O
  O54      1.0000 0.31234  0.20349  0.33054  Biso   1.000  O
  O55      1.0000 0.67256  0.18196  0.90495  Biso   1.000  O
  O56      1.0000 0.72655  0.24034  0.84975  Biso   1.000  O
  O57      1.0000 0.68862  0.33073  0.82410  Biso   1.000  O
  O58      1.0000 0.81805  0.20592  0.82231  Biso   1.000  O
  O59      1.0000 0.30663  0.20402  0.82450  Biso   1.000  O
  O60      1.0000 0.16884  0.68417  0.40869  Biso   1.000  O
  O61      1.0000 0.22832  0.74374  0.34760  Biso   1.000  O
  O62      1.0000 0.25735  0.76859  0.38294  Biso   1.000  O
  O63      1.0000 0.25057  0.76980  0.25967  Biso   1.000  O
  O64      1.0000 0.89034  0.68295  0.68526  Biso   1.000  O
  O65      1.0000 0.83636  0.74013  0.74045  Biso   1.000  O
  O66      1.0000 0.87427  0.76698  0.76611  Biso   1.000  O
  O67      1.0000 0.74485  0.76977  0.76790  Biso   1.000  O
  O68      1.0000 0.25628  0.25866  0.76571  Biso   1.000  O
  O69      1.0000 0.89701  0.68496  0.40190  Biso   1.000  O
  O70      1.0000 0.83494  0.74205  0.34980  Biso   1.000  O
  O71      1.0000 0.74523  0.76919  0.38523  Biso   1.000  O
  O72      1.0000 0.86956  0.77039  0.25847  Biso   1.000  O
  O73      1.0000 0.16736  0.41211  0.67728  Biso   1.000  O
  O74      1.0000 0.22724  0.35054  0.74055  Biso   1.000  O
  O75      1.0000 0.66589  0.90731  0.18831  Biso   1.000  O
  O76      1.0000 0.72796  0.85023  0.24041  Biso   1.000  O
  O77      1.0000 0.81767  0.82309  0.20498  Biso   1.000  O
  O78      1.0000 0.69334  0.82188  0.33173  Biso   1.000  O
  O79      1.0000 0.39554  0.18016  0.91293  Biso   1.000  O
  O80      1.0000 0.33567  0.24174  0.84965  Biso   1.000  O
  O81      1.0000 0.14878  0.49236  0.36288  Biso   1.000  O
  O82      1.0000 0.15009  0.36332  0.49273  Biso   1.000  O
  O83      1.0000 0.85052  0.49335  0.65881  Biso   1.000  O
  O84      1.0000 0.97646  0.36631  0.66280  Biso   1.000  O
  O85      1.0000 0.14830  0.49434  0.66001  Biso   1.000  O
  O86      1.0000 0.41412  0.92747  0.22733  Biso   1.000  O
  O87      1.0000 0.41281  0.92957  0.09748  Biso   1.000  O
  O88      1.0000 0.71238  0.92609  0.93140  Biso   1.000  O
  O89      1.0000 0.58644  0.92898  0.92741  Biso   1.000  O
  O90      1.0000 0.41460  0.22607  0.93020  Biso   1.000  O
  O91      1.0000 0.41412  0.09991  0.22733  Biso   1.000  O
  O92      1.0000 0.41282  0.22895  0.09748  Biso   1.000  O
  O93      1.0000 0.71238  0.09893  0.93140  Biso   1.000  O
  O94      1.0000 0.58644  0.22597  0.92741  Biso   1.000  O
  O95      1.0000 0.41460  0.09793  0.93020  Biso   1.000  O
  O96      1.0000 0.14878  0.66481  0.36288  Biso   1.000  O
  O97      1.0000 0.15009  0.66271  0.49273  Biso   1.000  O
  O98      1.0000 0.85052  0.66619  0.65881  Biso   1.000  O
  O99      1.0000 0.97646  0.66330  0.66280  Biso   1.000  O
  O100     1.0000 0.14830  0.36621  0.66001  Biso   1.000  O
  O101     1.0000 0.03164  0.54644  0.54433  Biso   1.000  O
  O102     1.0000 0.97764  0.66381  0.36357  Biso   1.000  O
  O103     1.0000 0.85191  0.66610  0.48474  Biso   1.000  O
  O104     1.0000 0.53126  0.04584  0.04588  Biso   1.000  O
  O105     1.0000 0.58526  0.92847  0.22664  Biso   1.000  O
  O106     1.0000 0.71099  0.92618  0.10547  Biso   1.000  O
