data_image0
_cell_length_a       18.228
_cell_length_b       18.228
_cell_length_c       18.228
_cell_angle_alpha    60
_cell_angle_beta     60
_cell_angle_gamma    60

_symmetry_space_group_name_H-M    "P 1"
_symmetry_int_tables_number       1

loop_
  _symmetry_equiv_pos_as_xyz
  'x, y, z'

loop_
  _atom_site_label
  _atom_site_occupancy
  _atom_site_fract_x
  _atom_site_fract_y
  _atom_site_fract_z
  _atom_site_thermal_displace_type
  _atom_site_B_iso_or_equiv
  _atom_site_type_symbol
  Zn1      1.0000 0.29358  0.29359  0.11924  Biso   1.000  Zn
  Zn2      1.0000 0.29358  0.29359  0.29359  Biso   1.000  Zn
  Zn3      1.0000 0.11923  0.29359  0.29359  Biso   1.000  Zn
  Zn4      1.0000 0.29358  0.11924  0.29359  Biso   1.000  Zn
  Zn5      1.0000 0.70642  0.70641  0.88076  Biso   1.000  Zn
  Zn6      1.0000 0.70642  0.70641  0.70641  Biso   1.000  Zn
  Zn7      1.0000 0.70642  0.88076  0.70641  Biso   1.000  Zn
  Zn8      1.0000 0.88077  0.70641  0.70641  Biso   1.000  Zn
  H1       1.0000 0.45570  0.45570  0.93670  Biso   1.000  H
  H2       1.0000 0.45570  0.45570  0.15190  Biso   1.000  H
  H3       1.0000 0.93670  0.15190  0.45570  Biso   1.000  H
  H4       1.0000 0.15190  0.93670  0.45570  Biso   1.000  H
  H5       1.0000 0.45570  0.93670  0.15190  Biso   1.000  H
  H6       1.0000 0.45570  0.15190  0.93670  Biso   1.000  H
  H7       1.0000 0.93670  0.45570  0.45570  Biso   1.000  H
  H8       1.0000 0.15190  0.45570  0.45570  Biso   1.000  H
  H9       1.0000 0.45570  0.15190  0.45570  Biso   1.000  H
  H10      1.0000 0.45570  0.93670  0.45570  Biso   1.000  H
  H11      1.0000 0.93670  0.45570  0.15190  Biso   1.000  H
  H12      1.0000 0.15190  0.45570  0.93670  Biso   1.000  H
  H13      1.0000 0.54430  0.54430  0.06330  Biso   1.000  H
  H14      1.0000 0.54430  0.54430  0.84810  Biso   1.000  H
  H15      1.0000 0.84810  0.06330  0.54430  Biso   1.000  H
  H16      1.0000 0.06330  0.84810  0.54430  Biso   1.000  H
  H17      1.0000 0.06330  0.54430  0.84810  Biso   1.000  H
  H18      1.0000 0.84810  0.54430  0.06330  Biso   1.000  H
  H19      1.0000 0.54430  0.06330  0.54430  Biso   1.000  H
  H20      1.0000 0.54430  0.84810  0.54430  Biso   1.000  H
  H21      1.0000 0.84810  0.54430  0.54430  Biso   1.000  H
  H22      1.0000 0.06330  0.54430  0.54430  Biso   1.000  H
  H23      1.0000 0.54430  0.06330  0.84810  Biso   1.000  H
  H24      1.0000 0.54430  0.84810  0.06330  Biso   1.000  H
  C1       1.0000 0.47340  0.47340  0.96356  Biso   1.000  C
  C2       1.0000 0.47340  0.47340  0.08964  Biso   1.000  C
  C3       1.0000 0.96356  0.08964  0.47340  Biso   1.000  C
  C4       1.0000 0.08964  0.96356  0.47340  Biso   1.000  C
  C5       1.0000 0.47340  0.96356  0.08964  Biso   1.000  C
  C6       1.0000 0.47340  0.08964  0.96356  Biso   1.000  C
  C7       1.0000 0.96356  0.47340  0.47340  Biso   1.000  C
  C8       1.0000 0.08964  0.47340  0.47340  Biso   1.000  C
  C9       1.0000 0.47340  0.08964  0.47340  Biso   1.000  C
  C10      1.0000 0.47340  0.96356  0.47340  Biso   1.000  C
  C11      1.0000 0.96356  0.47340  0.08964  Biso   1.000  C
  C12      1.0000 0.08964  0.47340  0.96356  Biso   1.000  C
  C13      1.0000 0.52660  0.52660  0.03644  Biso   1.000  C
  C14      1.0000 0.52660  0.52660  0.91036  Biso   1.000  C
  C15      1.0000 0.91036  0.03644  0.52660  Biso   1.000  C
  C16      1.0000 0.03644  0.91036  0.52660  Biso   1.000  C
  C17      1.0000 0.03644  0.52660  0.91036  Biso   1.000  C
  C18      1.0000 0.91036  0.52660  0.03644  Biso   1.000  C
  C19      1.0000 0.52660  0.03644  0.52660  Biso   1.000  C
  C20      1.0000 0.52660  0.91036  0.52660  Biso   1.000  C
  C21      1.0000 0.91036  0.52660  0.52660  Biso   1.000  C
  C22      1.0000 0.03644  0.52660  0.52660  Biso   1.000  C
  C23      1.0000 0.52660  0.03644  0.91036  Biso   1.000  C
  C24      1.0000 0.52660  0.91036  0.03644  Biso   1.000  C
  C25      1.0000 0.38850  0.38850  0.11150  Biso   1.000  C
  C26      1.0000 0.44610  0.44610  0.05390  Biso   1.000  C
  C27      1.0000 0.11150  0.11150  0.38850  Biso   1.000  C
  C28      1.0000 0.05390  0.05390  0.44610  Biso   1.000  C
  C29      1.0000 0.38850  0.11150  0.11150  Biso   1.000  C
  C30      1.0000 0.44610  0.05390  0.05390  Biso   1.000  C
  C31      1.0000 0.11150  0.38850  0.38850  Biso   1.000  C
  C32      1.0000 0.05390  0.44610  0.44610  Biso   1.000  C
  C33      1.0000 0.38850  0.11150  0.38850  Biso   1.000  C
  C34      1.0000 0.44610  0.05390  0.44610  Biso   1.000  C
  C35      1.0000 0.11150  0.38850  0.11150  Biso   1.000  C
  C36      1.0000 0.05390  0.44610  0.05390  Biso   1.000  C
  C37      1.0000 0.61150  0.61150  0.88850  Biso   1.000  C
  C38      1.0000 0.55390  0.55390  0.94610  Biso   1.000  C
  C39      1.0000 0.88850  0.88850  0.61150  Biso   1.000  C
  C40      1.0000 0.94610  0.94610  0.55390  Biso   1.000  C
  C41      1.0000 0.88850  0.61150  0.88850  Biso   1.000  C
  C42      1.0000 0.94610  0.55390  0.94610  Biso   1.000  C
  C43      1.0000 0.61150  0.88850  0.61150  Biso   1.000  C
  C44      1.0000 0.55390  0.94610  0.55390  Biso   1.000  C
  C45      1.0000 0.88850  0.61150  0.61150  Biso   1.000  C
  C46      1.0000 0.94610  0.55390  0.55390  Biso   1.000  C
  C47      1.0000 0.61150  0.88850  0.88850  Biso   1.000  C
  C48      1.0000 0.55390  0.94610  0.94610  Biso   1.000  C
  O1       1.0000 0.25000  0.25000  0.25000  Biso   1.000  O
  O2       1.0000 0.75000  0.75000  0.75000  Biso   1.000  O
  O3       1.0000 0.36610  0.36610  0.07322  Biso   1.000  O
  O4       1.0000 0.36610  0.36610  0.19458  Biso   1.000  O
  O5       1.0000 0.07322  0.19458  0.36610  Biso   1.000  O
  O6       1.0000 0.19458  0.07322  0.36610  Biso   1.000  O
  O7       1.0000 0.36610  0.07322  0.19458  Biso   1.000  O
  O8       1.0000 0.36610  0.19458  0.07322  Biso   1.000  O
  O9       1.0000 0.07322  0.36610  0.36610  Biso   1.000  O
  O10      1.0000 0.19458  0.36610  0.36610  Biso   1.000  O
  O11      1.0000 0.36610  0.19458  0.36610  Biso   1.000  O
  O12      1.0000 0.36610  0.07322  0.36610  Biso   1.000  O
  O13      1.0000 0.07322  0.36610  0.19458  Biso   1.000  O
  O14      1.0000 0.19458  0.36610  0.07322  Biso   1.000  O
  O15      1.0000 0.63390  0.63390  0.92678  Biso   1.000  O
  O16      1.0000 0.63390  0.63390  0.80542  Biso   1.000  O
  O17      1.0000 0.80542  0.92678  0.63390  Biso   1.000  O
  O18      1.0000 0.92678  0.80542  0.63390  Biso   1.000  O
  O19      1.0000 0.92678  0.63390  0.80542  Biso   1.000  O
  O20      1.0000 0.80542  0.63390  0.92678  Biso   1.000  O
  O21      1.0000 0.63390  0.92678  0.63390  Biso   1.000  O
  O22      1.0000 0.63390  0.80542  0.63390  Biso   1.000  O
  O23      1.0000 0.80542  0.63390  0.63390  Biso   1.000  O
  O24      1.0000 0.92678  0.63390  0.63390  Biso   1.000  O
  O25      1.0000 0.63390  0.92678  0.80542  Biso   1.000  O
  O26      1.0000 0.63390  0.80542  0.92678  Biso   1.000  O
  Zn9      1.0000 0.57946  0.42052  0.42050  Biso   1.000  Zn
  Zn10     1.0000 0.14470  0.84123  0.01378  Biso   1.000  Zn
  Zn11     1.0000 0.14470  0.01399  0.01378  Biso   1.000  Zn
  Zn12     1.0000 0.57946  0.59328  0.42050  Biso   1.000  Zn
  Zn13     1.0000 0.57942  0.42044  0.59347  Biso   1.000  Zn
  Zn14     1.0000 0.75199  0.42070  0.42037  Biso   1.000  Zn
  Zn15     1.0000 0.14474  0.01407  0.84081  Biso   1.000  Zn
  Zn16     1.0000 0.97217  0.01381  0.01391  Biso   1.000  Zn
  H25      1.0000 0.40189  0.26461  0.78951  Biso   1.000  H
  H26      1.0000 0.40095  0.26615  0.55620  Biso   1.000  H
  H27      1.0000 0.39807  0.55626  0.26694  Biso   1.000  H
  H28      1.0000 0.32227  0.87684  0.64476  Biso   1.000  H
  H29      1.0000 0.32321  0.64404  0.87808  Biso   1.000  H
  H30      1.0000 0.32609  0.64205  0.16733  Biso   1.000  H
  H31      1.0000 0.32227  0.16990  0.64476  Biso   1.000  H
  H32      1.0000 0.32321  0.16837  0.87808  Biso   1.000  H
  H33      1.0000 0.32609  0.87825  0.16733  Biso   1.000  H
  H34      1.0000 0.40189  0.55767  0.78951  Biso   1.000  H
  H35      1.0000 0.40095  0.79047  0.55620  Biso   1.000  H
  H36      1.0000 0.39807  0.79246  0.26694  Biso   1.000  H
  C49      1.0000 0.49269  0.33280  0.59792  Biso   1.000  C
  C50      1.0000 0.42900  0.26861  0.65689  Biso   1.000  C
  C51      1.0000 0.38631  0.24331  0.76328  Biso   1.000  C
  C52      1.0000 0.38636  0.24475  0.61912  Biso   1.000  C
  C53      1.0000 0.75290  0.33341  0.33351  Biso   1.000  C
  C54      1.0000 0.38476  0.61908  0.24337  Biso   1.000  C
  C55      1.0000 0.23147  0.84415  0.83636  Biso   1.000  C
  C56      1.0000 0.29516  0.77523  0.77738  Biso   1.000  C
  C57      1.0000 0.33785  0.81373  0.67100  Biso   1.000  C
  C58      1.0000 0.33780  0.67096  0.81515  Biso   1.000  C
  C59      1.0000 0.97126  0.84059  0.10076  Biso   1.000  C
  C60      1.0000 0.33940  0.66799  0.19090  Biso   1.000  C
  C61      1.0000 0.23147  0.10171  0.83636  Biso   1.000  C
  C62      1.0000 0.29516  0.16591  0.77738  Biso   1.000  C
  C63      1.0000 0.33785  0.19120  0.67100  Biso   1.000  C
  C64      1.0000 0.33780  0.18977  0.81515  Biso   1.000  C
  C65      1.0000 0.97126  0.10110  0.10076  Biso   1.000  C
  C66      1.0000 0.33940  0.81544  0.19090  Biso   1.000  C
  C67      1.0000 0.49269  0.59036  0.59792  Biso   1.000  C
  C68      1.0000 0.42900  0.65928  0.65689  Biso   1.000  C
  C69      1.0000 0.38631  0.62078  0.76328  Biso   1.000  C
  C70      1.0000 0.38636  0.76355  0.61912  Biso   1.000  C
  C71      1.0000 0.75290  0.59393  0.33351  Biso   1.000  C
  C72      1.0000 0.38476  0.76653  0.24337  Biso   1.000  C
  C73      1.0000 0.75094  0.33251  0.59782  Biso   1.000  C
  C74      1.0000 0.48933  0.59501  0.33440  Biso   1.000  C
  C75      1.0000 0.42878  0.65950  0.26596  Biso   1.000  C
  C76      1.0000 0.97322  0.10201  0.83646  Biso   1.000  C
  C77      1.0000 0.23483  0.83950  0.09988  Biso   1.000  C
  C78      1.0000 0.29538  0.77501  0.16832  Biso   1.000  C
  O27      1.0000 0.51005  0.34897  0.64151  Biso   1.000  O
  O28      1.0000 0.50807  0.34819  0.51567  Biso   1.000  O
  O29      1.0000 0.80181  0.34879  0.34969  Biso   1.000  O
  O30      1.0000 0.67234  0.34859  0.34959  Biso   1.000  O
  O31      1.0000 0.50885  0.51396  0.34801  Biso   1.000  O
  O32      1.0000 0.21411  0.92126  0.79277  Biso   1.000  O
  O33      1.0000 0.21609  0.79267  0.91861  Biso   1.000  O
  O34      1.0000 0.92235  0.92105  0.08459  Biso   1.000  O
  O35      1.0000 0.05182  0.79128  0.08469  Biso   1.000  O
  O36      1.0000 0.21531  0.79158  0.08627  Biso   1.000  O
  O37      1.0000 0.21411  0.08554  0.79277  Biso   1.000  O
  O38      1.0000 0.21609  0.08632  0.91861  Biso   1.000  O
  O39      1.0000 0.92235  0.08572  0.08459  Biso   1.000  O
  O40      1.0000 0.05182  0.08592  0.08469  Biso   1.000  O
  O41      1.0000 0.21531  0.92056  0.08627  Biso   1.000  O
  O42      1.0000 0.51005  0.51325  0.64151  Biso   1.000  O
  O43      1.0000 0.50807  0.64184  0.51567  Biso   1.000  O
  O44      1.0000 0.80181  0.51346  0.34969  Biso   1.000  O
  O45      1.0000 0.67234  0.64323  0.34959  Biso   1.000  O
  O46      1.0000 0.50885  0.64293  0.34801  Biso   1.000  O
  O47      1.0000 0.62117  0.46504  0.46251  Biso   1.000  O
  O48      1.0000 0.67265  0.34907  0.64299  Biso   1.000  O
  O49      1.0000 0.80152  0.34918  0.51389  Biso   1.000  O
  O50      1.0000 0.10299  0.96947  0.97177  Biso   1.000  O
  O51      1.0000 0.05151  0.08544  0.79129  Biso   1.000  O
  O52      1.0000 0.92264  0.08534  0.92038  Biso   1.000  O
