data_image0
_cell_length_a       18.2422
_cell_length_b       18.2422
_cell_length_c       18.2422
_cell_angle_alpha    60
_cell_angle_beta     60
_cell_angle_gamma    60

_symmetry_space_group_name_H-M    "P 1"
_symmetry_int_tables_number       1

loop_
  _symmetry_equiv_pos_as_xyz
  'x, y, z'

loop_
  _atom_site_label
  _atom_site_occupancy
  _atom_site_fract_x
  _atom_site_fract_y
  _atom_site_fract_z
  _atom_site_thermal_displace_type
  _atom_site_B_iso_or_equiv
  _atom_site_type_symbol
  Zn1      1.0000 0.29356  0.29355  0.11934  Biso   1.000  Zn
  Zn2      1.0000 0.29356  0.29355  0.29355  Biso   1.000  Zn
  Zn3      1.0000 0.11935  0.29355  0.29355  Biso   1.000  Zn
  Zn4      1.0000 0.29356  0.11934  0.29355  Biso   1.000  Zn
  Zn5      1.0000 0.70644  0.70645  0.88066  Biso   1.000  Zn
  Zn6      1.0000 0.70644  0.70645  0.70645  Biso   1.000  Zn
  Zn7      1.0000 0.70644  0.88066  0.70645  Biso   1.000  Zn
  Zn8      1.0000 0.88065  0.70645  0.70645  Biso   1.000  Zn
  H1       1.0000 0.45610  0.45610  0.93590  Biso   1.000  H
  H2       1.0000 0.45610  0.45610  0.15190  Biso   1.000  H
  H3       1.0000 0.93590  0.15190  0.45610  Biso   1.000  H
  H4       1.0000 0.15190  0.93590  0.45610  Biso   1.000  H
  H5       1.0000 0.45610  0.93590  0.15190  Biso   1.000  H
  H6       1.0000 0.45610  0.15190  0.93590  Biso   1.000  H
  H7       1.0000 0.93590  0.45610  0.45610  Biso   1.000  H
  H8       1.0000 0.15190  0.45610  0.45610  Biso   1.000  H
  H9       1.0000 0.45610  0.15190  0.45610  Biso   1.000  H
  H10      1.0000 0.45610  0.93590  0.45610  Biso   1.000  H
  H11      1.0000 0.93590  0.45610  0.15190  Biso   1.000  H
  H12      1.0000 0.15190  0.45610  0.93590  Biso   1.000  H
  H13      1.0000 0.54390  0.54390  0.06410  Biso   1.000  H
  H14      1.0000 0.54390  0.54390  0.84810  Biso   1.000  H
  H15      1.0000 0.84810  0.06410  0.54390  Biso   1.000  H
  H16      1.0000 0.06410  0.84810  0.54390  Biso   1.000  H
  H17      1.0000 0.06410  0.54390  0.84810  Biso   1.000  H
  H18      1.0000 0.84810  0.54390  0.06410  Biso   1.000  H
  H19      1.0000 0.54390  0.06410  0.54390  Biso   1.000  H
  H20      1.0000 0.54390  0.84810  0.54390  Biso   1.000  H
  H21      1.0000 0.84810  0.54390  0.54390  Biso   1.000  H
  H22      1.0000 0.06410  0.54390  0.54390  Biso   1.000  H
  H23      1.0000 0.54390  0.06410  0.84810  Biso   1.000  H
  H24      1.0000 0.54390  0.84810  0.06410  Biso   1.000  H
  C1       1.0000 0.47369  0.47369  0.96285  Biso   1.000  C
  C2       1.0000 0.47369  0.47369  0.08977  Biso   1.000  C
  C3       1.0000 0.96285  0.08977  0.47369  Biso   1.000  C
  C4       1.0000 0.08977  0.96285  0.47369  Biso   1.000  C
  C5       1.0000 0.47369  0.96285  0.08977  Biso   1.000  C
  C6       1.0000 0.47369  0.08977  0.96285  Biso   1.000  C
  C7       1.0000 0.96285  0.47369  0.47369  Biso   1.000  C
  C8       1.0000 0.08977  0.47369  0.47369  Biso   1.000  C
  C9       1.0000 0.47369  0.08977  0.47369  Biso   1.000  C
  C10      1.0000 0.47369  0.96285  0.47369  Biso   1.000  C
  C11      1.0000 0.96285  0.47369  0.08977  Biso   1.000  C
  C12      1.0000 0.08977  0.47369  0.96285  Biso   1.000  C
  C13      1.0000 0.52631  0.52631  0.03715  Biso   1.000  C
  C14      1.0000 0.52631  0.52631  0.91023  Biso   1.000  C
  C15      1.0000 0.91023  0.03715  0.52631  Biso   1.000  C
  C16      1.0000 0.03715  0.91023  0.52631  Biso   1.000  C
  C17      1.0000 0.03715  0.52631  0.91023  Biso   1.000  C
  C18      1.0000 0.91023  0.52631  0.03715  Biso   1.000  C
  C19      1.0000 0.52631  0.03715  0.52631  Biso   1.000  C
  C20      1.0000 0.52631  0.91023  0.52631  Biso   1.000  C
  C21      1.0000 0.91023  0.52631  0.52631  Biso   1.000  C
  C22      1.0000 0.03715  0.52631  0.52631  Biso   1.000  C
  C23      1.0000 0.52631  0.03715  0.91023  Biso   1.000  C
  C24      1.0000 0.52631  0.91023  0.03715  Biso   1.000  C
  C25      1.0000 0.38870  0.38870  0.11130  Biso   1.000  C
  C26      1.0000 0.44610  0.44610  0.05390  Biso   1.000  C
  C27      1.0000 0.11130  0.11130  0.38870  Biso   1.000  C
  C28      1.0000 0.05390  0.05390  0.44610  Biso   1.000  C
  C29      1.0000 0.38870  0.11130  0.11130  Biso   1.000  C
  C30      1.0000 0.44610  0.05390  0.05390  Biso   1.000  C
  C31      1.0000 0.11130  0.38870  0.38870  Biso   1.000  C
  C32      1.0000 0.05390  0.44610  0.44610  Biso   1.000  C
  C33      1.0000 0.38870  0.11130  0.38870  Biso   1.000  C
  C34      1.0000 0.44610  0.05390  0.44610  Biso   1.000  C
  C35      1.0000 0.11130  0.38870  0.11130  Biso   1.000  C
  C36      1.0000 0.05390  0.44610  0.05390  Biso   1.000  C
  C37      1.0000 0.61130  0.61130  0.88870  Biso   1.000  C
  C38      1.0000 0.55390  0.55390  0.94610  Biso   1.000  C
  C39      1.0000 0.88870  0.88870  0.61130  Biso   1.000  C
  C40      1.0000 0.94610  0.94610  0.55390  Biso   1.000  C
  C41      1.0000 0.88870  0.61130  0.88870  Biso   1.000  C
  C42      1.0000 0.94610  0.55390  0.94610  Biso   1.000  C
  C43      1.0000 0.61130  0.88870  0.61130  Biso   1.000  C
  C44      1.0000 0.55390  0.94610  0.55390  Biso   1.000  C
  C45      1.0000 0.88870  0.61130  0.61130  Biso   1.000  C
  C46      1.0000 0.94610  0.55390  0.55390  Biso   1.000  C
  C47      1.0000 0.61130  0.88870  0.88870  Biso   1.000  C
  C48      1.0000 0.55390  0.94610  0.94610  Biso   1.000  C
  O1       1.0000 0.25000  0.25000  0.25000  Biso   1.000  O
  O2       1.0000 0.75000  0.75000  0.75000  Biso   1.000  O
  O3       1.0000 0.36609  0.36609  0.07323  Biso   1.000  O
  O4       1.0000 0.36609  0.36609  0.19459  Biso   1.000  O
  O5       1.0000 0.07323  0.19459  0.36609  Biso   1.000  O
  O6       1.0000 0.19459  0.07323  0.36609  Biso   1.000  O
  O7       1.0000 0.36609  0.07323  0.19459  Biso   1.000  O
  O8       1.0000 0.36609  0.19459  0.07323  Biso   1.000  O
  O9       1.0000 0.07323  0.36609  0.36609  Biso   1.000  O
  O10      1.0000 0.19459  0.36609  0.36609  Biso   1.000  O
  O11      1.0000 0.36609  0.19459  0.36609  Biso   1.000  O
  O12      1.0000 0.36609  0.07323  0.36609  Biso   1.000  O
  O13      1.0000 0.07323  0.36609  0.19459  Biso   1.000  O
  O14      1.0000 0.19459  0.36609  0.07323  Biso   1.000  O
  O15      1.0000 0.63391  0.63391  0.92677  Biso   1.000  O
  O16      1.0000 0.63391  0.63391  0.80541  Biso   1.000  O
  O17      1.0000 0.80541  0.92677  0.63391  Biso   1.000  O
  O18      1.0000 0.92677  0.80541  0.63391  Biso   1.000  O
  O19      1.0000 0.92677  0.63391  0.80541  Biso   1.000  O
  O20      1.0000 0.80541  0.63391  0.92677  Biso   1.000  O
  O21      1.0000 0.63391  0.92677  0.63391  Biso   1.000  O
  O22      1.0000 0.63391  0.80541  0.63391  Biso   1.000  O
  O23      1.0000 0.80541  0.63391  0.63391  Biso   1.000  O
  O24      1.0000 0.92677  0.63391  0.63391  Biso   1.000  O
  O25      1.0000 0.63391  0.92677  0.80541  Biso   1.000  O
  O26      1.0000 0.63391  0.80541  0.92677  Biso   1.000  O
  Zn9      1.0000 0.57856  0.42142  0.42140  Biso   1.000  Zn
  Zn10     1.0000 0.14137  0.84303  0.01531  Biso   1.000  Zn
  Zn11     1.0000 0.14137  0.01552  0.01531  Biso   1.000  Zn
  Zn12     1.0000 0.57856  0.59391  0.42140  Biso   1.000  Zn
  Zn13     1.0000 0.57852  0.42135  0.59410  Biso   1.000  Zn
  Zn14     1.0000 0.75082  0.42160  0.42127  Biso   1.000  Zn
  Zn15     1.0000 0.14141  0.01560  0.84261  Biso   1.000  Zn
  Zn16     1.0000 0.96910  0.01535  0.01544  Biso   1.000  Zn
  H25      1.0000 0.39971  0.26575  0.79140  Biso   1.000  H
  H26      1.0000 0.39877  0.26729  0.55689  Biso   1.000  H
  H27      1.0000 0.39590  0.55695  0.26808  Biso   1.000  H
  H28      1.0000 0.32021  0.87859  0.64532  Biso   1.000  H
  H29      1.0000 0.32115  0.64460  0.87982  Biso   1.000  H
  H30      1.0000 0.32402  0.64261  0.16863  Biso   1.000  H
  H31      1.0000 0.32021  0.17119  0.64532  Biso   1.000  H
  H32      1.0000 0.32115  0.16966  0.87982  Biso   1.000  H
  H33      1.0000 0.32402  0.88000  0.16863  Biso   1.000  H
  H34      1.0000 0.39971  0.55836  0.79140  Biso   1.000  H
  H35      1.0000 0.39877  0.79235  0.55689  Biso   1.000  H
  H36      1.0000 0.39590  0.79434  0.26808  Biso   1.000  H
  C49      1.0000 0.49193  0.33384  0.59854  Biso   1.000  C
  C50      1.0000 0.42833  0.26974  0.65743  Biso   1.000  C
  C51      1.0000 0.38416  0.24449  0.76520  Biso   1.000  C
  C52      1.0000 0.38420  0.24592  0.61971  Biso   1.000  C
  C53      1.0000 0.75173  0.33445  0.33455  Biso   1.000  C
  C54      1.0000 0.38261  0.61967  0.24455  Biso   1.000  C
  C55      1.0000 0.22799  0.84595  0.83817  Biso   1.000  C
  C56      1.0000 0.29159  0.77713  0.77928  Biso   1.000  C
  C57      1.0000 0.33577  0.81558  0.67151  Biso   1.000  C
  C58      1.0000 0.33572  0.67148  0.81700  Biso   1.000  C
  C59      1.0000 0.96819  0.84239  0.10216  Biso   1.000  C
  C60      1.0000 0.33732  0.66850  0.19216  Biso   1.000  C
  C61      1.0000 0.22799  0.10311  0.83817  Biso   1.000  C
  C62      1.0000 0.29159  0.16720  0.77928  Biso   1.000  C
  C63      1.0000 0.33577  0.19246  0.67151  Biso   1.000  C
  C64      1.0000 0.33572  0.19103  0.81700  Biso   1.000  C
  C65      1.0000 0.96819  0.10250  0.10216  Biso   1.000  C
  C66      1.0000 0.33731  0.81728  0.19216  Biso   1.000  C
  C67      1.0000 0.49193  0.59100  0.59854  Biso   1.000  C
  C68      1.0000 0.42833  0.65981  0.65743  Biso   1.000  C
  C69      1.0000 0.38416  0.62137  0.76520  Biso   1.000  C
  C70      1.0000 0.38420  0.76547  0.61971  Biso   1.000  C
  C71      1.0000 0.75173  0.59456  0.33455  Biso   1.000  C
  C72      1.0000 0.38261  0.76844  0.24455  Biso   1.000  C
  C73      1.0000 0.74977  0.33354  0.59845  Biso   1.000  C
  C74      1.0000 0.48857  0.59564  0.33544  Biso   1.000  C
  C75      1.0000 0.42811  0.66003  0.26710  Biso   1.000  C
  C76      1.0000 0.97015  0.10340  0.83827  Biso   1.000  C
  C77      1.0000 0.23136  0.84131  0.10128  Biso   1.000  C
  C78      1.0000 0.29181  0.77692  0.16961  Biso   1.000  C
  O27      1.0000 0.50926  0.34998  0.64207  Biso   1.000  O
  O28      1.0000 0.50728  0.34920  0.51642  Biso   1.000  O
  O29      1.0000 0.80056  0.34980  0.35070  Biso   1.000  O
  O30      1.0000 0.67129  0.34961  0.35060  Biso   1.000  O
  O31      1.0000 0.50806  0.51471  0.34902  Biso   1.000  O
  O32      1.0000 0.21066  0.92294  0.79465  Biso   1.000  O
  O33      1.0000 0.21264  0.79455  0.92029  Biso   1.000  O
  O34      1.0000 0.91936  0.92273  0.08601  Biso   1.000  O
  O35      1.0000 0.04863  0.79316  0.08611  Biso   1.000  O
  O36      1.0000 0.21186  0.79346  0.08769  Biso   1.000  O
  O37      1.0000 0.21066  0.08696  0.79465  Biso   1.000  O
  O38      1.0000 0.21264  0.08774  0.92029  Biso   1.000  O
  O39      1.0000 0.91936  0.08714  0.08601  Biso   1.000  O
  O40      1.0000 0.04863  0.08734  0.08611  Biso   1.000  O
  O41      1.0000 0.21186  0.92224  0.08769  Biso   1.000  O
  O42      1.0000 0.50926  0.51401  0.64207  Biso   1.000  O
  O43      1.0000 0.50728  0.64240  0.51642  Biso   1.000  O
  O44      1.0000 0.80056  0.51422  0.35070  Biso   1.000  O
  O45      1.0000 0.67129  0.64378  0.35060  Biso   1.000  O
  O46      1.0000 0.50806  0.64349  0.34902  Biso   1.000  O
  O47      1.0000 0.62020  0.46587  0.46335  Biso   1.000  O
  O48      1.0000 0.67161  0.35008  0.64354  Biso   1.000  O
  O49      1.0000 0.80028  0.35019  0.51465  Biso   1.000  O
  O50      1.0000 0.09972  0.97108  0.97337  Biso   1.000  O
  O51      1.0000 0.04832  0.08687  0.79317  Biso   1.000  O
  O52      1.0000 0.91965  0.08676  0.92206  Biso   1.000  O
