data_image0
_cell_length_a       18.228
_cell_length_b       18.228
_cell_length_c       18.228
_cell_angle_alpha    60
_cell_angle_beta     60
_cell_angle_gamma    60

_symmetry_space_group_name_H-M    "P 1"
_symmetry_int_tables_number       1

loop_
  _symmetry_equiv_pos_as_xyz
  'x, y, z'

loop_
  _atom_site_label
  _atom_site_occupancy
  _atom_site_fract_x
  _atom_site_fract_y
  _atom_site_fract_z
  _atom_site_thermal_displace_type
  _atom_site_B_iso_or_equiv
  _atom_site_type_symbol
  Zn1      1.0000 0.29358  0.29359  0.11924  Biso   1.000  Zn
  Zn2      1.0000 0.29358  0.29359  0.29359  Biso   1.000  Zn
  Zn3      1.0000 0.11923  0.29359  0.29359  Biso   1.000  Zn
  Zn4      1.0000 0.29358  0.11924  0.29359  Biso   1.000  Zn
  Zn5      1.0000 0.70642  0.70641  0.88076  Biso   1.000  Zn
  Zn6      1.0000 0.70642  0.70641  0.70641  Biso   1.000  Zn
  Zn7      1.0000 0.70642  0.88076  0.70641  Biso   1.000  Zn
  Zn8      1.0000 0.88077  0.70641  0.70641  Biso   1.000  Zn
  H1       1.0000 0.45570  0.45570  0.93670  Biso   1.000  H
  H2       1.0000 0.45570  0.45570  0.15190  Biso   1.000  H
  H3       1.0000 0.93670  0.15190  0.45570  Biso   1.000  H
  H4       1.0000 0.15190  0.93670  0.45570  Biso   1.000  H
  H5       1.0000 0.45570  0.93670  0.15190  Biso   1.000  H
  H6       1.0000 0.45570  0.15190  0.93670  Biso   1.000  H
  H7       1.0000 0.93670  0.45570  0.45570  Biso   1.000  H
  H8       1.0000 0.15190  0.45570  0.45570  Biso   1.000  H
  H9       1.0000 0.45570  0.15190  0.45570  Biso   1.000  H
  H10      1.0000 0.45570  0.93670  0.45570  Biso   1.000  H
  H11      1.0000 0.93670  0.45570  0.15190  Biso   1.000  H
  H12      1.0000 0.15190  0.45570  0.93670  Biso   1.000  H
  H13      1.0000 0.54430  0.54430  0.06330  Biso   1.000  H
  H14      1.0000 0.54430  0.54430  0.84810  Biso   1.000  H
  H15      1.0000 0.84810  0.06330  0.54430  Biso   1.000  H
  H16      1.0000 0.06330  0.84810  0.54430  Biso   1.000  H
  H17      1.0000 0.06330  0.54430  0.84810  Biso   1.000  H
  H18      1.0000 0.84810  0.54430  0.06330  Biso   1.000  H
  H19      1.0000 0.54430  0.06330  0.54430  Biso   1.000  H
  H20      1.0000 0.54430  0.84810  0.54430  Biso   1.000  H
  H21      1.0000 0.84810  0.54430  0.54430  Biso   1.000  H
  H22      1.0000 0.06330  0.54430  0.54430  Biso   1.000  H
  H23      1.0000 0.54430  0.06330  0.84810  Biso   1.000  H
  H24      1.0000 0.54430  0.84810  0.06330  Biso   1.000  H
  C1       1.0000 0.47340  0.47340  0.96356  Biso   1.000  C
  C2       1.0000 0.47340  0.47340  0.08964  Biso   1.000  C
  C3       1.0000 0.96356  0.08964  0.47340  Biso   1.000  C
  C4       1.0000 0.08964  0.96356  0.47340  Biso   1.000  C
  C5       1.0000 0.47340  0.96356  0.08964  Biso   1.000  C
  C6       1.0000 0.47340  0.08964  0.96356  Biso   1.000  C
  C7       1.0000 0.96356  0.47340  0.47340  Biso   1.000  C
  C8       1.0000 0.08964  0.47340  0.47340  Biso   1.000  C
  C9       1.0000 0.47340  0.08964  0.47340  Biso   1.000  C
  C10      1.0000 0.47340  0.96356  0.47340  Biso   1.000  C
  C11      1.0000 0.96356  0.47340  0.08964  Biso   1.000  C
  C12      1.0000 0.08964  0.47340  0.96356  Biso   1.000  C
  C13      1.0000 0.52660  0.52660  0.03644  Biso   1.000  C
  C14      1.0000 0.52660  0.52660  0.91036  Biso   1.000  C
  C15      1.0000 0.91036  0.03644  0.52660  Biso   1.000  C
  C16      1.0000 0.03644  0.91036  0.52660  Biso   1.000  C
  C17      1.0000 0.03644  0.52660  0.91036  Biso   1.000  C
  C18      1.0000 0.91036  0.52660  0.03644  Biso   1.000  C
  C19      1.0000 0.52660  0.03644  0.52660  Biso   1.000  C
  C20      1.0000 0.52660  0.91036  0.52660  Biso   1.000  C
  C21      1.0000 0.91036  0.52660  0.52660  Biso   1.000  C
  C22      1.0000 0.03644  0.52660  0.52660  Biso   1.000  C
  C23      1.0000 0.52660  0.03644  0.91036  Biso   1.000  C
  C24      1.0000 0.52660  0.91036  0.03644  Biso   1.000  C
  C25      1.0000 0.38850  0.38850  0.11150  Biso   1.000  C
  C26      1.0000 0.44610  0.44610  0.05390  Biso   1.000  C
  C27      1.0000 0.11150  0.11150  0.38850  Biso   1.000  C
  C28      1.0000 0.05390  0.05390  0.44610  Biso   1.000  C
  C29      1.0000 0.38850  0.11150  0.11150  Biso   1.000  C
  C30      1.0000 0.44610  0.05390  0.05390  Biso   1.000  C
  C31      1.0000 0.11150  0.38850  0.38850  Biso   1.000  C
  C32      1.0000 0.05390  0.44610  0.44610  Biso   1.000  C
  C33      1.0000 0.38850  0.11150  0.38850  Biso   1.000  C
  C34      1.0000 0.44610  0.05390  0.44610  Biso   1.000  C
  C35      1.0000 0.11150  0.38850  0.11150  Biso   1.000  C
  C36      1.0000 0.05390  0.44610  0.05390  Biso   1.000  C
  C37      1.0000 0.61150  0.61150  0.88850  Biso   1.000  C
  C38      1.0000 0.55390  0.55390  0.94610  Biso   1.000  C
  C39      1.0000 0.88850  0.88850  0.61150  Biso   1.000  C
  C40      1.0000 0.94610  0.94610  0.55390  Biso   1.000  C
  C41      1.0000 0.88850  0.61150  0.88850  Biso   1.000  C
  C42      1.0000 0.94610  0.55390  0.94610  Biso   1.000  C
  C43      1.0000 0.61150  0.88850  0.61150  Biso   1.000  C
  C44      1.0000 0.55390  0.94610  0.55390  Biso   1.000  C
  C45      1.0000 0.88850  0.61150  0.61150  Biso   1.000  C
  C46      1.0000 0.94610  0.55390  0.55390  Biso   1.000  C
  C47      1.0000 0.61150  0.88850  0.88850  Biso   1.000  C
  C48      1.0000 0.55390  0.94610  0.94610  Biso   1.000  C
  O1       1.0000 0.25000  0.25000  0.25000  Biso   1.000  O
  O2       1.0000 0.75000  0.75000  0.75000  Biso   1.000  O
  O3       1.0000 0.36610  0.36610  0.07322  Biso   1.000  O
  O4       1.0000 0.36610  0.36610  0.19458  Biso   1.000  O
  O5       1.0000 0.07322  0.19458  0.36610  Biso   1.000  O
  O6       1.0000 0.19458  0.07322  0.36610  Biso   1.000  O
  O7       1.0000 0.36610  0.07322  0.19458  Biso   1.000  O
  O8       1.0000 0.36610  0.19458  0.07322  Biso   1.000  O
  O9       1.0000 0.07322  0.36610  0.36610  Biso   1.000  O
  O10      1.0000 0.19458  0.36610  0.36610  Biso   1.000  O
  O11      1.0000 0.36610  0.19458  0.36610  Biso   1.000  O
  O12      1.0000 0.36610  0.07322  0.36610  Biso   1.000  O
  O13      1.0000 0.07322  0.36610  0.19458  Biso   1.000  O
  O14      1.0000 0.19458  0.36610  0.07322  Biso   1.000  O
  O15      1.0000 0.63390  0.63390  0.92678  Biso   1.000  O
  O16      1.0000 0.63390  0.63390  0.80542  Biso   1.000  O
  O17      1.0000 0.80542  0.92678  0.63390  Biso   1.000  O
  O18      1.0000 0.92678  0.80542  0.63390  Biso   1.000  O
  O19      1.0000 0.92678  0.63390  0.80542  Biso   1.000  O
  O20      1.0000 0.80542  0.63390  0.92678  Biso   1.000  O
  O21      1.0000 0.63390  0.92678  0.63390  Biso   1.000  O
  O22      1.0000 0.63390  0.80542  0.63390  Biso   1.000  O
  O23      1.0000 0.80542  0.63390  0.63390  Biso   1.000  O
  O24      1.0000 0.92678  0.63390  0.63390  Biso   1.000  O
  O25      1.0000 0.63390  0.92678  0.80542  Biso   1.000  O
  O26      1.0000 0.63390  0.80542  0.92678  Biso   1.000  O
  Zn9      1.0000 0.76889  0.26235  0.38201  Biso   1.000  Zn
  Zn10     1.0000 0.58635  0.26235  0.56455  Biso   1.000  Zn
  Zn11     1.0000 0.58635  0.44490  0.38201  Biso   1.000  Zn
  Zn12     1.0000 0.58635  0.26235  0.38201  Biso   1.000  Zn
  Zn13     1.0000 0.16645  0.85362  0.80192  Biso   1.000  Zn
  Zn14     1.0000 0.99510  0.85362  0.97327  Biso   1.000  Zn
  Zn15     1.0000 0.16645  0.85362  0.97327  Biso   1.000  Zn
  Zn16     1.0000 0.16645  0.68227  0.97327  Biso   1.000  Zn
  H25      1.0000 0.02384  0.01616  0.61944  Biso   1.000  H
  H26      1.0000 0.81262  0.01616  0.83066  Biso   1.000  H
  H27      1.0000 0.32900  0.71100  0.13582  Biso   1.000  H
  H28      1.0000 0.32900  0.49979  0.13582  Biso   1.000  H
  H29      1.0000 0.32900  0.49979  0.83066  Biso   1.000  H
  H30      1.0000 0.32900  0.71100  0.61944  Biso   1.000  H
  H31      1.0000 0.02384  0.01616  0.13582  Biso   1.000  H
  H32      1.0000 0.81262  0.01616  0.13582  Biso   1.000  H
  H33      1.0000 0.81262  0.71100  0.13582  Biso   1.000  H
  H34      1.0000 0.02384  0.49979  0.13582  Biso   1.000  H
  H35      1.0000 0.32900  0.01616  0.83066  Biso   1.000  H
  H36      1.0000 0.32900  0.01616  0.61944  Biso   1.000  H
  C49      1.0000 0.91438  0.08271  0.59581  Biso   1.000  C
  C50      1.0000 0.96224  0.03267  0.64802  Biso   1.000  C
  C51      1.0000 0.78899  0.08271  0.72120  Biso   1.000  C
  C52      1.0000 0.84120  0.03267  0.76906  Biso   1.000  C
  C53      1.0000 0.39554  0.60154  0.20236  Biso   1.000  C
  C54      1.0000 0.34551  0.64940  0.15233  Biso   1.000  C
  C55      1.0000 0.39554  0.47616  0.20236  Biso   1.000  C
  C56      1.0000 0.34551  0.52837  0.15233  Biso   1.000  C
  C57      1.0000 0.39554  0.47616  0.72120  Biso   1.000  C
  C58      1.0000 0.34551  0.52837  0.76906  Biso   1.000  C
  C59      1.0000 0.39554  0.60154  0.59581  Biso   1.000  C
  C60      1.0000 0.34551  0.64940  0.64802  Biso   1.000  C
  C61      1.0000 0.91438  0.08271  0.20236  Biso   1.000  C
  C62      1.0000 0.96224  0.03267  0.15233  Biso   1.000  C
  C63      1.0000 0.78899  0.08271  0.20236  Biso   1.000  C
  C64      1.0000 0.84120  0.03267  0.15233  Biso   1.000  C
  C65      1.0000 0.78899  0.60154  0.20236  Biso   1.000  C
  C66      1.0000 0.84120  0.64940  0.15233  Biso   1.000  C
  C67      1.0000 0.91438  0.47616  0.20236  Biso   1.000  C
  C68      1.0000 0.96224  0.52837  0.15233  Biso   1.000  C
  C69      1.0000 0.39554  0.08271  0.72120  Biso   1.000  C
  C70      1.0000 0.34551  0.03267  0.76906  Biso   1.000  C
  C71      1.0000 0.39554  0.08271  0.59581  Biso   1.000  C
  C72      1.0000 0.34551  0.03267  0.64802  Biso   1.000  C
  C73      1.0000 0.76417  0.17022  0.57099  Biso   1.000  C
  C74      1.0000 0.82746  0.10694  0.63428  Biso   1.000  C
  C75      1.0000 0.98359  0.95080  0.79041  Biso   1.000  C
  C76      1.0000 0.93366  0.00073  0.74048  Biso   1.000  C
  C77      1.0000 0.48306  0.45134  0.28988  Biso   1.000  C
  C78      1.0000 0.41977  0.51462  0.22659  Biso   1.000  C
  C79      1.0000 0.26363  0.67076  0.07045  Biso   1.000  C
  C80      1.0000 0.31357  0.62082  0.12039  Biso   1.000  C
  C81      1.0000 0.48306  0.45134  0.57099  Biso   1.000  C
  C82      1.0000 0.41977  0.51462  0.63428  Biso   1.000  C
  C83      1.0000 0.26363  0.67076  0.79041  Biso   1.000  C
  C84      1.0000 0.31357  0.62082  0.74048  Biso   1.000  C
  C85      1.0000 0.76417  0.17022  0.28988  Biso   1.000  C
  C86      1.0000 0.82746  0.10694  0.22659  Biso   1.000  C
  C87      1.0000 0.98359  0.95080  0.07045  Biso   1.000  C
  C88      1.0000 0.93366  0.00073  0.12039  Biso   1.000  C
  C89      1.0000 0.76417  0.45134  0.28988  Biso   1.000  C
  C90      1.0000 0.82746  0.51462  0.22659  Biso   1.000  C
  C91      1.0000 0.98359  0.67076  0.07045  Biso   1.000  C
  C92      1.0000 0.93366  0.62082  0.12039  Biso   1.000  C
  C93      1.0000 0.48306  0.17022  0.57099  Biso   1.000  C
  C94      1.0000 0.41977  0.10694  0.63428  Biso   1.000  C
  C95      1.0000 0.26363  0.95080  0.79041  Biso   1.000  C
  C96      1.0000 0.31357  0.00073  0.74048  Biso   1.000  C
  O27      1.0000 0.12361  0.81078  0.93043  Biso   1.000  O
  O28      1.0000 0.64035  0.30520  0.42485  Biso   1.000  O
  O29      1.0000 0.80254  0.19198  0.48911  Biso   1.000  O
  O30      1.0000 0.06794  0.92618  0.75531  Biso   1.000  O
  O31      1.0000 0.68229  0.19198  0.60936  Biso   1.000  O
  O32      1.0000 0.94849  0.92618  0.87476  Biso   1.000  O
  O33      1.0000 0.50481  0.48970  0.31163  Biso   1.000  O
  O34      1.0000 0.23901  0.75511  0.04583  Biso   1.000  O
  O35      1.0000 0.50481  0.36946  0.31163  Biso   1.000  O
  O36      1.0000 0.23901  0.63566  0.04583  Biso   1.000  O
  O37      1.0000 0.50481  0.36946  0.60936  Biso   1.000  O
  O38      1.0000 0.23901  0.63566  0.87476  Biso   1.000  O
  O39      1.0000 0.50481  0.48970  0.48911  Biso   1.000  O
  O40      1.0000 0.23901  0.75511  0.75531  Biso   1.000  O
  O41      1.0000 0.80254  0.19198  0.31163  Biso   1.000  O
  O42      1.0000 0.06794  0.92618  0.04583  Biso   1.000  O
  O43      1.0000 0.68229  0.19198  0.31163  Biso   1.000  O
  O44      1.0000 0.94849  0.92618  0.04583  Biso   1.000  O
  O45      1.0000 0.68229  0.48970  0.31163  Biso   1.000  O
  O46      1.0000 0.94849  0.75511  0.04583  Biso   1.000  O
  O47      1.0000 0.80254  0.36946  0.31163  Biso   1.000  O
  O48      1.0000 0.06794  0.63566  0.04583  Biso   1.000  O
  O49      1.0000 0.50481  0.19198  0.60936  Biso   1.000  O
  O50      1.0000 0.23901  0.92618  0.87476  Biso   1.000  O
  O51      1.0000 0.50481  0.19198  0.48911  Biso   1.000  O
  O52      1.0000 0.23901  0.92618  0.75531  Biso   1.000  O
