data_image0
_cell_length_a       18.2789
_cell_length_b       18.2789
_cell_length_c       18.2789
_cell_angle_alpha    60
_cell_angle_beta     60
_cell_angle_gamma    60

_symmetry_space_group_name_H-M    "P 1"
_symmetry_int_tables_number       1

loop_
  _symmetry_equiv_pos_as_xyz
  'x, y, z'

loop_
  _atom_site_label
  _atom_site_occupancy
  _atom_site_fract_x
  _atom_site_fract_y
  _atom_site_fract_z
  _atom_site_thermal_displace_type
  _atom_site_B_iso_or_equiv
  _atom_site_type_symbol
  Zn1      1.0000 0.29348  0.29347  0.11958  Biso   1.000  Zn
  Zn2      1.0000 0.29348  0.29347  0.29347  Biso   1.000  Zn
  Zn3      1.0000 0.11959  0.29347  0.29347  Biso   1.000  Zn
  Zn4      1.0000 0.29348  0.11958  0.29347  Biso   1.000  Zn
  Zn5      1.0000 0.70652  0.70653  0.88042  Biso   1.000  Zn
  Zn6      1.0000 0.70652  0.70653  0.70653  Biso   1.000  Zn
  Zn7      1.0000 0.70652  0.88042  0.70653  Biso   1.000  Zn
  Zn8      1.0000 0.88041  0.70653  0.70653  Biso   1.000  Zn
  H1       1.0000 0.45520  0.45520  0.93520  Biso   1.000  H
  H2       1.0000 0.45520  0.45520  0.15440  Biso   1.000  H
  H3       1.0000 0.93520  0.15440  0.45520  Biso   1.000  H
  H4       1.0000 0.15440  0.93520  0.45520  Biso   1.000  H
  H5       1.0000 0.45520  0.93520  0.15440  Biso   1.000  H
  H6       1.0000 0.45520  0.15440  0.93520  Biso   1.000  H
  H7       1.0000 0.93520  0.45520  0.45520  Biso   1.000  H
  H8       1.0000 0.15440  0.45520  0.45520  Biso   1.000  H
  H9       1.0000 0.45520  0.15440  0.45520  Biso   1.000  H
  H10      1.0000 0.45520  0.93520  0.45520  Biso   1.000  H
  H11      1.0000 0.93520  0.45520  0.15440  Biso   1.000  H
  H12      1.0000 0.15440  0.45520  0.93520  Biso   1.000  H
  H13      1.0000 0.54480  0.54480  0.06480  Biso   1.000  H
  H14      1.0000 0.54480  0.54480  0.84560  Biso   1.000  H
  H15      1.0000 0.84560  0.06480  0.54480  Biso   1.000  H
  H16      1.0000 0.06480  0.84560  0.54480  Biso   1.000  H
  H17      1.0000 0.06480  0.54480  0.84560  Biso   1.000  H
  H18      1.0000 0.84560  0.54480  0.06480  Biso   1.000  H
  H19      1.0000 0.54480  0.06480  0.54480  Biso   1.000  H
  H20      1.0000 0.54480  0.84560  0.54480  Biso   1.000  H
  H21      1.0000 0.84560  0.54480  0.54480  Biso   1.000  H
  H22      1.0000 0.06480  0.54480  0.54480  Biso   1.000  H
  H23      1.0000 0.54480  0.06480  0.84560  Biso   1.000  H
  H24      1.0000 0.54480  0.84560  0.06480  Biso   1.000  H
  C1       1.0000 0.47338  0.47338  0.96214  Biso   1.000  C
  C2       1.0000 0.47338  0.47338  0.09110  Biso   1.000  C
  C3       1.0000 0.96214  0.09110  0.47338  Biso   1.000  C
  C4       1.0000 0.09110  0.96214  0.47338  Biso   1.000  C
  C5       1.0000 0.47338  0.96214  0.09110  Biso   1.000  C
  C6       1.0000 0.47338  0.09110  0.96214  Biso   1.000  C
  C7       1.0000 0.96214  0.47338  0.47338  Biso   1.000  C
  C8       1.0000 0.09110  0.47338  0.47338  Biso   1.000  C
  C9       1.0000 0.47338  0.09110  0.47338  Biso   1.000  C
  C10      1.0000 0.47338  0.96214  0.47338  Biso   1.000  C
  C11      1.0000 0.96214  0.47338  0.09110  Biso   1.000  C
  C12      1.0000 0.09110  0.47338  0.96214  Biso   1.000  C
  C13      1.0000 0.52662  0.52662  0.03786  Biso   1.000  C
  C14      1.0000 0.52662  0.52662  0.90890  Biso   1.000  C
  C15      1.0000 0.90890  0.03786  0.52662  Biso   1.000  C
  C16      1.0000 0.03786  0.90890  0.52662  Biso   1.000  C
  C17      1.0000 0.03786  0.52662  0.90890  Biso   1.000  C
  C18      1.0000 0.90890  0.52662  0.03786  Biso   1.000  C
  C19      1.0000 0.52662  0.03786  0.52662  Biso   1.000  C
  C20      1.0000 0.52662  0.90890  0.52662  Biso   1.000  C
  C21      1.0000 0.90890  0.52662  0.52662  Biso   1.000  C
  C22      1.0000 0.03786  0.52662  0.52662  Biso   1.000  C
  C23      1.0000 0.52662  0.03786  0.90890  Biso   1.000  C
  C24      1.0000 0.52662  0.90890  0.03786  Biso   1.000  C
  C25      1.0000 0.38853  0.38853  0.11147  Biso   1.000  C
  C26      1.0000 0.44615  0.44615  0.05385  Biso   1.000  C
  C27      1.0000 0.11147  0.11147  0.38853  Biso   1.000  C
  C28      1.0000 0.05385  0.05385  0.44615  Biso   1.000  C
  C29      1.0000 0.38853  0.11147  0.11147  Biso   1.000  C
  C30      1.0000 0.44615  0.05385  0.05385  Biso   1.000  C
  C31      1.0000 0.11147  0.38853  0.38853  Biso   1.000  C
  C32      1.0000 0.05385  0.44615  0.44615  Biso   1.000  C
  C33      1.0000 0.38853  0.11147  0.38853  Biso   1.000  C
  C34      1.0000 0.44615  0.05385  0.44615  Biso   1.000  C
  C35      1.0000 0.11147  0.38853  0.11147  Biso   1.000  C
  C36      1.0000 0.05385  0.44615  0.05385  Biso   1.000  C
  C37      1.0000 0.61147  0.61147  0.88853  Biso   1.000  C
  C38      1.0000 0.55385  0.55385  0.94615  Biso   1.000  C
  C39      1.0000 0.88853  0.88853  0.61147  Biso   1.000  C
  C40      1.0000 0.94615  0.94615  0.55385  Biso   1.000  C
  C41      1.0000 0.88853  0.61147  0.88853  Biso   1.000  C
  C42      1.0000 0.94615  0.55385  0.94615  Biso   1.000  C
  C43      1.0000 0.61147  0.88853  0.61147  Biso   1.000  C
  C44      1.0000 0.55385  0.94615  0.55385  Biso   1.000  C
  C45      1.0000 0.88853  0.61147  0.61147  Biso   1.000  C
  C46      1.0000 0.94615  0.55385  0.55385  Biso   1.000  C
  C47      1.0000 0.61147  0.88853  0.88853  Biso   1.000  C
  C48      1.0000 0.55385  0.94615  0.94615  Biso   1.000  C
  O1       1.0000 0.25000  0.25000  0.25000  Biso   1.000  O
  O2       1.0000 0.75000  0.75000  0.75000  Biso   1.000  O
  O3       1.0000 0.36624  0.36624  0.07286  Biso   1.000  O
  O4       1.0000 0.36624  0.36624  0.19466  Biso   1.000  O
  O5       1.0000 0.07286  0.19466  0.36624  Biso   1.000  O
  O6       1.0000 0.19466  0.07286  0.36624  Biso   1.000  O
  O7       1.0000 0.36624  0.07286  0.19466  Biso   1.000  O
  O8       1.0000 0.36624  0.19466  0.07286  Biso   1.000  O
  O9       1.0000 0.07286  0.36624  0.36624  Biso   1.000  O
  O10      1.0000 0.19466  0.36624  0.36624  Biso   1.000  O
  O11      1.0000 0.36624  0.19466  0.36624  Biso   1.000  O
  O12      1.0000 0.36624  0.07286  0.36624  Biso   1.000  O
  O13      1.0000 0.07286  0.36624  0.19466  Biso   1.000  O
  O14      1.0000 0.19466  0.36624  0.07286  Biso   1.000  O
  O15      1.0000 0.63376  0.63376  0.92714  Biso   1.000  O
  O16      1.0000 0.63376  0.63376  0.80534  Biso   1.000  O
  O17      1.0000 0.80534  0.92714  0.63376  Biso   1.000  O
  O18      1.0000 0.92714  0.80534  0.63376  Biso   1.000  O
  O19      1.0000 0.92714  0.63376  0.80534  Biso   1.000  O
  O20      1.0000 0.80534  0.63376  0.92714  Biso   1.000  O
  O21      1.0000 0.63376  0.92714  0.63376  Biso   1.000  O
  O22      1.0000 0.63376  0.80534  0.63376  Biso   1.000  O
  O23      1.0000 0.80534  0.63376  0.63376  Biso   1.000  O
  O24      1.0000 0.92714  0.63376  0.63376  Biso   1.000  O
  O25      1.0000 0.63376  0.92714  0.80534  Biso   1.000  O
  O26      1.0000 0.63376  0.80534  0.92714  Biso   1.000  O
  Zn9      1.0000 0.50299  0.52054  0.33534  Biso   1.000  Zn
  Zn10     1.0000 0.50299  0.52054  0.50940  Biso   1.000  Zn
  Zn11     1.0000 0.32893  0.52054  0.50940  Biso   1.000  Zn
  Zn12     1.0000 0.50299  0.34648  0.50940  Biso   1.000  Zn
  Zn13     1.0000 0.91691  0.93448  0.09740  Biso   1.000  Zn
  Zn14     1.0000 0.91691  0.93448  0.92334  Biso   1.000  Zn
  Zn15     1.0000 0.91691  0.10854  0.92334  Biso   1.000  Zn
  Zn16     1.0000 0.09097  0.93448  0.92334  Biso   1.000  Zn
  H25      1.0000 0.66506  0.68262  0.15201  Biso   1.000  H
  H26      1.0000 0.66506  0.68262  0.37051  Biso   1.000  H
  H27      1.0000 0.14559  0.38164  0.67148  Biso   1.000  H
  H28      1.0000 0.36408  0.16315  0.67148  Biso   1.000  H
  H29      1.0000 0.66506  0.16315  0.37051  Biso   1.000  H
  H30      1.0000 0.66506  0.38164  0.15201  Biso   1.000  H
  H31      1.0000 0.14559  0.68262  0.67148  Biso   1.000  H
  H32      1.0000 0.36408  0.68262  0.67148  Biso   1.000  H
  H33      1.0000 0.66506  0.38164  0.67148  Biso   1.000  H
  H34      1.0000 0.66506  0.16315  0.67148  Biso   1.000  H
  H35      1.0000 0.14559  0.68262  0.37051  Biso   1.000  H
  H36      1.0000 0.36408  0.68262  0.15201  Biso   1.000  H
  H37      1.0000 0.75483  0.77240  0.28073  Biso   1.000  H
  H38      1.0000 0.75483  0.77240  0.06224  Biso   1.000  H
  H39      1.0000 0.05581  0.29187  0.76126  Biso   1.000  H
  H40      1.0000 0.27431  0.07337  0.76126  Biso   1.000  H
  H41      1.0000 0.27431  0.77240  0.06224  Biso   1.000  H
  H42      1.0000 0.05581  0.77240  0.28073  Biso   1.000  H
  H43      1.0000 0.75483  0.29187  0.76126  Biso   1.000  H
  H44      1.0000 0.75483  0.07337  0.76126  Biso   1.000  H
  H45      1.0000 0.05581  0.77240  0.76126  Biso   1.000  H
  H46      1.0000 0.27431  0.77240  0.76126  Biso   1.000  H
  H47      1.0000 0.75483  0.29187  0.06224  Biso   1.000  H
  H48      1.0000 0.75483  0.07337  0.28073  Biso   1.000  H
  C49      1.0000 0.68329  0.70085  0.17901  Biso   1.000  C
  C50      1.0000 0.68329  0.70085  0.30705  Biso   1.000  C
  C51      1.0000 0.17259  0.31819  0.68971  Biso   1.000  C
  C52      1.0000 0.30063  0.19015  0.68971  Biso   1.000  C
  C53      1.0000 0.68329  0.19015  0.30705  Biso   1.000  C
  C54      1.0000 0.68329  0.31819  0.17901  Biso   1.000  C
  C55      1.0000 0.17259  0.70085  0.68971  Biso   1.000  C
  C56      1.0000 0.30063  0.70085  0.68971  Biso   1.000  C
  C57      1.0000 0.68329  0.31819  0.68971  Biso   1.000  C
  C58      1.0000 0.68329  0.19015  0.68971  Biso   1.000  C
  C59      1.0000 0.17259  0.70085  0.30705  Biso   1.000  C
  C60      1.0000 0.30063  0.70085  0.17901  Biso   1.000  C
  C61      1.0000 0.73661  0.75417  0.25373  Biso   1.000  C
  C62      1.0000 0.73661  0.75417  0.12569  Biso   1.000  C
  C63      1.0000 0.11926  0.26487  0.74303  Biso   1.000  C
  C64      1.0000 0.24731  0.13683  0.74303  Biso   1.000  C
  C65      1.0000 0.24731  0.75417  0.12569  Biso   1.000  C
  C66      1.0000 0.11926  0.75417  0.25373  Biso   1.000  C
  C67      1.0000 0.73661  0.26487  0.74303  Biso   1.000  C
  C68      1.0000 0.73661  0.13683  0.74303  Biso   1.000  C
  C69      1.0000 0.11926  0.75417  0.74303  Biso   1.000  C
  C70      1.0000 0.24731  0.75417  0.74303  Biso   1.000  C
  C71      1.0000 0.73661  0.26487  0.12569  Biso   1.000  C
  C72      1.0000 0.73661  0.13683  0.25373  Biso   1.000  C
  C73      1.0000 0.59813  0.61569  0.32722  Biso   1.000  C
  C74      1.0000 0.65621  0.67378  0.26914  Biso   1.000  C
  C75      1.0000 0.32080  0.33836  0.60456  Biso   1.000  C
  C76      1.0000 0.26272  0.28028  0.66264  Biso   1.000  C
  C77      1.0000 0.59813  0.33836  0.32722  Biso   1.000  C
  C78      1.0000 0.65621  0.28028  0.26914  Biso   1.000  C
  C79      1.0000 0.32080  0.61569  0.60456  Biso   1.000  C
  C80      1.0000 0.26272  0.67378  0.66264  Biso   1.000  C
  C81      1.0000 0.59813  0.33836  0.60456  Biso   1.000  C
  C82      1.0000 0.65621  0.28028  0.66264  Biso   1.000  C
  C83      1.0000 0.32080  0.61569  0.32722  Biso   1.000  C
  C84      1.0000 0.26272  0.67378  0.26914  Biso   1.000  C
  C85      1.0000 0.82176  0.83932  0.10552  Biso   1.000  C
  C86      1.0000 0.76368  0.78124  0.16360  Biso   1.000  C
  C87      1.0000 0.09910  0.11666  0.82819  Biso   1.000  C
  C88      1.0000 0.15718  0.17474  0.77010  Biso   1.000  C
  C89      1.0000 0.09910  0.83932  0.10552  Biso   1.000  C
  C90      1.0000 0.15718  0.78124  0.16360  Biso   1.000  C
  C91      1.0000 0.82176  0.11666  0.82819  Biso   1.000  C
  C92      1.0000 0.76368  0.17474  0.77010  Biso   1.000  C
  C93      1.0000 0.09910  0.83932  0.82819  Biso   1.000  C
  C94      1.0000 0.15718  0.78124  0.77010  Biso   1.000  C
  C95      1.0000 0.82176  0.11666  0.10552  Biso   1.000  C
  C96      1.0000 0.76368  0.17474  0.16360  Biso   1.000  C
  O27      1.0000 0.45947  0.47703  0.46589  Biso   1.000  O
  O28      1.0000 0.96043  0.97799  0.96685  Biso   1.000  O
  O29      1.0000 0.57582  0.59338  0.28836  Biso   1.000  O
  O30      1.0000 0.57582  0.59338  0.41071  Biso   1.000  O
  O31      1.0000 0.28193  0.42185  0.58224  Biso   1.000  O
  O32      1.0000 0.40429  0.29950  0.58224  Biso   1.000  O
  O33      1.0000 0.57582  0.29950  0.41071  Biso   1.000  O
  O34      1.0000 0.57582  0.42185  0.28836  Biso   1.000  O
  O35      1.0000 0.28193  0.59338  0.58224  Biso   1.000  O
  O36      1.0000 0.40429  0.59338  0.58224  Biso   1.000  O
  O37      1.0000 0.57582  0.42185  0.58224  Biso   1.000  O
  O38      1.0000 0.57582  0.29950  0.58224  Biso   1.000  O
  O39      1.0000 0.28193  0.59338  0.41071  Biso   1.000  O
  O40      1.0000 0.40429  0.59338  0.28836  Biso   1.000  O
  O41      1.0000 0.84408  0.86164  0.14438  Biso   1.000  O
  O42      1.0000 0.84408  0.86164  0.02203  Biso   1.000  O
  O43      1.0000 0.01561  0.15552  0.85050  Biso   1.000  O
  O44      1.0000 0.13796  0.03317  0.85050  Biso   1.000  O
  O45      1.0000 0.13796  0.86164  0.02203  Biso   1.000  O
  O46      1.0000 0.01561  0.86164  0.14438  Biso   1.000  O
  O47      1.0000 0.84408  0.15552  0.85050  Biso   1.000  O
  O48      1.0000 0.84408  0.03317  0.85050  Biso   1.000  O
  O49      1.0000 0.01561  0.86164  0.85050  Biso   1.000  O
  O50      1.0000 0.13796  0.86164  0.85050  Biso   1.000  O
  O51      1.0000 0.84408  0.15552  0.02203  Biso   1.000  O
  O52      1.0000 0.84408  0.03317  0.14438  Biso   1.000  O
