data_image0
_cell_length_a       18.2751
_cell_length_b       18.2751
_cell_length_c       18.2751
_cell_angle_alpha    60
_cell_angle_beta     60
_cell_angle_gamma    60

_symmetry_space_group_name_H-M    "P 1"
_symmetry_int_tables_number       1

loop_
  _symmetry_equiv_pos_as_xyz
  'x, y, z'

loop_
  _atom_site_label
  _atom_site_occupancy
  _atom_site_fract_x
  _atom_site_fract_y
  _atom_site_fract_z
  _atom_site_thermal_displace_type
  _atom_site_B_iso_or_equiv
  _atom_site_type_symbol
  Zn1      1.0000 0.29350  0.29349  0.11952  Biso   1.000  Zn
  Zn2      1.0000 0.29350  0.29349  0.29349  Biso   1.000  Zn
  Zn3      1.0000 0.11953  0.29349  0.29349  Biso   1.000  Zn
  Zn4      1.0000 0.29350  0.11952  0.29349  Biso   1.000  Zn
  Zn5      1.0000 0.70650  0.70651  0.88048  Biso   1.000  Zn
  Zn6      1.0000 0.70650  0.70651  0.70651  Biso   1.000  Zn
  Zn7      1.0000 0.70650  0.88048  0.70651  Biso   1.000  Zn
  Zn8      1.0000 0.88047  0.70651  0.70651  Biso   1.000  Zn
  H1       1.0000 0.45530  0.45530  0.93570  Biso   1.000  H
  H2       1.0000 0.45530  0.45530  0.15370  Biso   1.000  H
  H3       1.0000 0.93570  0.15370  0.45530  Biso   1.000  H
  H4       1.0000 0.15370  0.93570  0.45530  Biso   1.000  H
  H5       1.0000 0.45530  0.93570  0.15370  Biso   1.000  H
  H6       1.0000 0.45530  0.15370  0.93570  Biso   1.000  H
  H7       1.0000 0.93570  0.45530  0.45530  Biso   1.000  H
  H8       1.0000 0.15370  0.45530  0.45530  Biso   1.000  H
  H9       1.0000 0.45530  0.15370  0.45530  Biso   1.000  H
  H10      1.0000 0.45530  0.93570  0.45530  Biso   1.000  H
  H11      1.0000 0.93570  0.45530  0.15370  Biso   1.000  H
  H12      1.0000 0.15370  0.45530  0.93570  Biso   1.000  H
  H13      1.0000 0.54470  0.54470  0.06430  Biso   1.000  H
  H14      1.0000 0.54470  0.54470  0.84630  Biso   1.000  H
  H15      1.0000 0.84630  0.06430  0.54470  Biso   1.000  H
  H16      1.0000 0.06430  0.84630  0.54470  Biso   1.000  H
  H17      1.0000 0.06430  0.54470  0.84630  Biso   1.000  H
  H18      1.0000 0.84630  0.54470  0.06430  Biso   1.000  H
  H19      1.0000 0.54470  0.06430  0.54470  Biso   1.000  H
  H20      1.0000 0.54470  0.84630  0.54470  Biso   1.000  H
  H21      1.0000 0.84630  0.54470  0.54470  Biso   1.000  H
  H22      1.0000 0.06430  0.54470  0.54470  Biso   1.000  H
  H23      1.0000 0.54470  0.06430  0.84630  Biso   1.000  H
  H24      1.0000 0.54470  0.84630  0.06430  Biso   1.000  H
  C1       1.0000 0.47331  0.47331  0.96231  Biso   1.000  C
  C2       1.0000 0.47331  0.47331  0.09107  Biso   1.000  C
  C3       1.0000 0.96231  0.09107  0.47331  Biso   1.000  C
  C4       1.0000 0.09107  0.96231  0.47331  Biso   1.000  C
  C5       1.0000 0.47331  0.96231  0.09107  Biso   1.000  C
  C6       1.0000 0.47331  0.09107  0.96231  Biso   1.000  C
  C7       1.0000 0.96231  0.47331  0.47331  Biso   1.000  C
  C8       1.0000 0.09107  0.47331  0.47331  Biso   1.000  C
  C9       1.0000 0.47331  0.09107  0.47331  Biso   1.000  C
  C10      1.0000 0.47331  0.96231  0.47331  Biso   1.000  C
  C11      1.0000 0.96231  0.47331  0.09107  Biso   1.000  C
  C12      1.0000 0.09107  0.47331  0.96231  Biso   1.000  C
  C13      1.0000 0.52669  0.52669  0.03769  Biso   1.000  C
  C14      1.0000 0.52669  0.52669  0.90893  Biso   1.000  C
  C15      1.0000 0.90893  0.03769  0.52669  Biso   1.000  C
  C16      1.0000 0.03769  0.90893  0.52669  Biso   1.000  C
  C17      1.0000 0.03769  0.52669  0.90893  Biso   1.000  C
  C18      1.0000 0.90893  0.52669  0.03769  Biso   1.000  C
  C19      1.0000 0.52669  0.03769  0.52669  Biso   1.000  C
  C20      1.0000 0.52669  0.90893  0.52669  Biso   1.000  C
  C21      1.0000 0.90893  0.52669  0.52669  Biso   1.000  C
  C22      1.0000 0.03769  0.52669  0.52669  Biso   1.000  C
  C23      1.0000 0.52669  0.03769  0.90893  Biso   1.000  C
  C24      1.0000 0.52669  0.90893  0.03769  Biso   1.000  C
  C25      1.0000 0.38853  0.38853  0.11147  Biso   1.000  C
  C26      1.0000 0.44625  0.44625  0.05375  Biso   1.000  C
  C27      1.0000 0.11147  0.11147  0.38853  Biso   1.000  C
  C28      1.0000 0.05375  0.05375  0.44625  Biso   1.000  C
  C29      1.0000 0.38853  0.11147  0.11147  Biso   1.000  C
  C30      1.0000 0.44625  0.05375  0.05375  Biso   1.000  C
  C31      1.0000 0.11147  0.38853  0.38853  Biso   1.000  C
  C32      1.0000 0.05375  0.44625  0.44625  Biso   1.000  C
  C33      1.0000 0.38853  0.11147  0.38853  Biso   1.000  C
  C34      1.0000 0.44625  0.05375  0.44625  Biso   1.000  C
  C35      1.0000 0.11147  0.38853  0.11147  Biso   1.000  C
  C36      1.0000 0.05375  0.44625  0.05375  Biso   1.000  C
  C37      1.0000 0.61147  0.61147  0.88853  Biso   1.000  C
  C38      1.0000 0.55375  0.55375  0.94625  Biso   1.000  C
  C39      1.0000 0.88853  0.88853  0.61147  Biso   1.000  C
  C40      1.0000 0.94625  0.94625  0.55375  Biso   1.000  C
  C41      1.0000 0.88853  0.61147  0.88853  Biso   1.000  C
  C42      1.0000 0.94625  0.55375  0.94625  Biso   1.000  C
  C43      1.0000 0.61147  0.88853  0.61147  Biso   1.000  C
  C44      1.0000 0.55375  0.94625  0.55375  Biso   1.000  C
  C45      1.0000 0.88853  0.61147  0.61147  Biso   1.000  C
  C46      1.0000 0.94625  0.55375  0.55375  Biso   1.000  C
  C47      1.0000 0.61147  0.88853  0.88853  Biso   1.000  C
  C48      1.0000 0.55375  0.94625  0.94625  Biso   1.000  C
  O1       1.0000 0.25000  0.25000  0.25000  Biso   1.000  O
  O2       1.0000 0.75000  0.75000  0.75000  Biso   1.000  O
  O3       1.0000 0.36609  0.36609  0.07299  Biso   1.000  O
  O4       1.0000 0.36609  0.36609  0.19483  Biso   1.000  O
  O5       1.0000 0.07299  0.19483  0.36609  Biso   1.000  O
  O6       1.0000 0.19483  0.07299  0.36609  Biso   1.000  O
  O7       1.0000 0.36609  0.07299  0.19483  Biso   1.000  O
  O8       1.0000 0.36609  0.19483  0.07299  Biso   1.000  O
  O9       1.0000 0.07299  0.36609  0.36609  Biso   1.000  O
  O10      1.0000 0.19483  0.36609  0.36609  Biso   1.000  O
  O11      1.0000 0.36609  0.19483  0.36609  Biso   1.000  O
  O12      1.0000 0.36609  0.07299  0.36609  Biso   1.000  O
  O13      1.0000 0.07299  0.36609  0.19483  Biso   1.000  O
  O14      1.0000 0.19483  0.36609  0.07299  Biso   1.000  O
  O15      1.0000 0.63391  0.63391  0.92701  Biso   1.000  O
  O16      1.0000 0.63391  0.63391  0.80517  Biso   1.000  O
  O17      1.0000 0.80517  0.92701  0.63391  Biso   1.000  O
  O18      1.0000 0.92701  0.80517  0.63391  Biso   1.000  O
  O19      1.0000 0.92701  0.63391  0.80517  Biso   1.000  O
  O20      1.0000 0.80517  0.63391  0.92701  Biso   1.000  O
  O21      1.0000 0.63391  0.92701  0.63391  Biso   1.000  O
  O22      1.0000 0.63391  0.80517  0.63391  Biso   1.000  O
  O23      1.0000 0.80517  0.63391  0.63391  Biso   1.000  O
  O24      1.0000 0.92701  0.63391  0.63391  Biso   1.000  O
  O25      1.0000 0.63391  0.92701  0.80517  Biso   1.000  O
  O26      1.0000 0.63391  0.80517  0.92701  Biso   1.000  O
  Zn9      1.0000 0.50291  0.52046  0.33529  Biso   1.000  Zn
  Zn10     1.0000 0.50291  0.52046  0.50937  Biso   1.000  Zn
  Zn11     1.0000 0.32883  0.52046  0.50937  Biso   1.000  Zn
  Zn12     1.0000 0.50291  0.34638  0.50937  Biso   1.000  Zn
  Zn13     1.0000 0.91649  0.93402  0.09700  Biso   1.000  Zn
  Zn14     1.0000 0.91649  0.93402  0.92292  Biso   1.000  Zn
  Zn15     1.0000 0.91649  0.10810  0.92292  Biso   1.000  Zn
  Zn16     1.0000 0.09057  0.93402  0.92292  Biso   1.000  Zn
  H25      1.0000 0.66465  0.68219  0.15187  Biso   1.000  H
  H26      1.0000 0.66465  0.68219  0.37053  Biso   1.000  H
  H27      1.0000 0.14543  0.38162  0.67109  Biso   1.000  H
  H28      1.0000 0.36409  0.16296  0.67109  Biso   1.000  H
  H29      1.0000 0.66465  0.16296  0.37053  Biso   1.000  H
  H30      1.0000 0.66465  0.38162  0.15187  Biso   1.000  H
  H31      1.0000 0.14543  0.68219  0.67109  Biso   1.000  H
  H32      1.0000 0.36409  0.68219  0.67109  Biso   1.000  H
  H33      1.0000 0.66465  0.38162  0.67109  Biso   1.000  H
  H34      1.0000 0.66465  0.16296  0.67109  Biso   1.000  H
  H35      1.0000 0.14543  0.68219  0.37053  Biso   1.000  H
  H36      1.0000 0.36409  0.68219  0.15187  Biso   1.000  H
  H37      1.0000 0.75476  0.77229  0.28042  Biso   1.000  H
  H38      1.0000 0.75476  0.77229  0.06176  Biso   1.000  H
  H39      1.0000 0.05532  0.29152  0.76120  Biso   1.000  H
  H40      1.0000 0.27398  0.07286  0.76120  Biso   1.000  H
  H41      1.0000 0.27398  0.77229  0.06176  Biso   1.000  H
  H42      1.0000 0.05532  0.77229  0.28042  Biso   1.000  H
  H43      1.0000 0.75476  0.29152  0.76120  Biso   1.000  H
  H44      1.0000 0.75476  0.07286  0.76120  Biso   1.000  H
  H45      1.0000 0.05532  0.77229  0.76120  Biso   1.000  H
  H46      1.0000 0.27398  0.77229  0.76120  Biso   1.000  H
  H47      1.0000 0.75476  0.29152  0.06176  Biso   1.000  H
  H48      1.0000 0.75476  0.07286  0.28042  Biso   1.000  H
  C49      1.0000 0.68289  0.70043  0.17882  Biso   1.000  C
  C50      1.0000 0.68289  0.70043  0.30709  Biso   1.000  C
  C51      1.0000 0.17238  0.31819  0.68933  Biso   1.000  C
  C52      1.0000 0.30065  0.18992  0.68933  Biso   1.000  C
  C53      1.0000 0.68289  0.18992  0.30709  Biso   1.000  C
  C54      1.0000 0.68289  0.31819  0.17882  Biso   1.000  C
  C55      1.0000 0.17238  0.70043  0.68933  Biso   1.000  C
  C56      1.0000 0.30065  0.70043  0.68933  Biso   1.000  C
  C57      1.0000 0.68289  0.31819  0.68933  Biso   1.000  C
  C58      1.0000 0.68289  0.18992  0.68933  Biso   1.000  C
  C59      1.0000 0.17238  0.70043  0.30709  Biso   1.000  C
  C60      1.0000 0.30065  0.70043  0.17882  Biso   1.000  C
  C61      1.0000 0.73651  0.75405  0.25347  Biso   1.000  C
  C62      1.0000 0.73651  0.75405  0.12520  Biso   1.000  C
  C63      1.0000 0.11875  0.26456  0.74296  Biso   1.000  C
  C64      1.0000 0.24703  0.13629  0.74296  Biso   1.000  C
  C65      1.0000 0.24703  0.75405  0.12520  Biso   1.000  C
  C66      1.0000 0.11875  0.75405  0.25347  Biso   1.000  C
  C67      1.0000 0.73651  0.26456  0.74296  Biso   1.000  C
  C68      1.0000 0.73651  0.13629  0.74296  Biso   1.000  C
  C69      1.0000 0.11875  0.75405  0.74296  Biso   1.000  C
  C70      1.0000 0.24703  0.75405  0.74296  Biso   1.000  C
  C71      1.0000 0.73651  0.26456  0.12520  Biso   1.000  C
  C72      1.0000 0.73651  0.13629  0.25347  Biso   1.000  C
  C73      1.0000 0.59797  0.61551  0.32728  Biso   1.000  C
  C74      1.0000 0.65603  0.67357  0.26922  Biso   1.000  C
  C75      1.0000 0.32083  0.33837  0.60441  Biso   1.000  C
  C76      1.0000 0.26277  0.28031  0.66247  Biso   1.000  C
  C77      1.0000 0.59797  0.33837  0.32728  Biso   1.000  C
  C78      1.0000 0.65603  0.28031  0.26922  Biso   1.000  C
  C79      1.0000 0.32083  0.61551  0.60441  Biso   1.000  C
  C80      1.0000 0.26277  0.67357  0.66247  Biso   1.000  C
  C81      1.0000 0.59797  0.33837  0.60441  Biso   1.000  C
  C82      1.0000 0.65603  0.28031  0.66247  Biso   1.000  C
  C83      1.0000 0.32083  0.61551  0.32728  Biso   1.000  C
  C84      1.0000 0.26277  0.67357  0.26922  Biso   1.000  C
  C85      1.0000 0.82144  0.83897  0.10501  Biso   1.000  C
  C86      1.0000 0.76338  0.78091  0.16307  Biso   1.000  C
  C87      1.0000 0.09857  0.11611  0.82788  Biso   1.000  C
  C88      1.0000 0.15663  0.17417  0.76982  Biso   1.000  C
  C89      1.0000 0.09857  0.83897  0.10501  Biso   1.000  C
  C90      1.0000 0.15663  0.78091  0.16307  Biso   1.000  C
  C91      1.0000 0.82144  0.11611  0.82788  Biso   1.000  C
  C92      1.0000 0.76338  0.17417  0.76982  Biso   1.000  C
  C93      1.0000 0.09857  0.83897  0.82788  Biso   1.000  C
  C94      1.0000 0.15663  0.78091  0.76982  Biso   1.000  C
  C95      1.0000 0.82144  0.11611  0.10501  Biso   1.000  C
  C96      1.0000 0.76338  0.17417  0.16307  Biso   1.000  C
  O27      1.0000 0.45940  0.47694  0.46584  Biso   1.000  O
  O28      1.0000 0.96000  0.97754  0.96645  Biso   1.000  O
  O29      1.0000 0.57566  0.59320  0.28861  Biso   1.000  O
  O30      1.0000 0.57566  0.59320  0.41056  Biso   1.000  O
  O31      1.0000 0.28217  0.42165  0.58210  Biso   1.000  O
  O32      1.0000 0.40411  0.29971  0.58210  Biso   1.000  O
  O33      1.0000 0.57566  0.29971  0.41056  Biso   1.000  O
  O34      1.0000 0.57566  0.42165  0.28861  Biso   1.000  O
  O35      1.0000 0.28217  0.59320  0.58210  Biso   1.000  O
  O36      1.0000 0.40411  0.59320  0.58210  Biso   1.000  O
  O37      1.0000 0.57566  0.42165  0.58210  Biso   1.000  O
  O38      1.0000 0.57566  0.29971  0.58210  Biso   1.000  O
  O39      1.0000 0.28217  0.59320  0.41056  Biso   1.000  O
  O40      1.0000 0.40411  0.59320  0.28861  Biso   1.000  O
  O41      1.0000 0.84374  0.86128  0.14368  Biso   1.000  O
  O42      1.0000 0.84374  0.86128  0.02173  Biso   1.000  O
  O43      1.0000 0.01529  0.15477  0.85019  Biso   1.000  O
  O44      1.0000 0.13724  0.03283  0.85019  Biso   1.000  O
  O45      1.0000 0.13724  0.86128  0.02173  Biso   1.000  O
  O46      1.0000 0.01529  0.86128  0.14368  Biso   1.000  O
  O47      1.0000 0.84374  0.15477  0.85019  Biso   1.000  O
  O48      1.0000 0.84374  0.03283  0.85019  Biso   1.000  O
  O49      1.0000 0.01529  0.86128  0.85019  Biso   1.000  O
  O50      1.0000 0.13724  0.86128  0.85019  Biso   1.000  O
  O51      1.0000 0.84374  0.15477  0.02173  Biso   1.000  O
  O52      1.0000 0.84374  0.03283  0.14368  Biso   1.000  O
