data_image0
_cell_length_a       18.2115
_cell_length_b       18.2115
_cell_length_c       18.2115
_cell_angle_alpha    60
_cell_angle_beta     60
_cell_angle_gamma    60

_symmetry_space_group_name_H-M    "P 1"
_symmetry_int_tables_number       1

loop_
  _symmetry_equiv_pos_as_xyz
  'x, y, z'

loop_
  _atom_site_label
  _atom_site_occupancy
  _atom_site_fract_x
  _atom_site_fract_y
  _atom_site_fract_z
  _atom_site_thermal_displace_type
  _atom_site_B_iso_or_equiv
  _atom_site_type_symbol
  C1       1.0000 0.29361  0.29361  0.11917  Biso   1.000  C
  C2       1.0000 0.29361  0.29361  0.29361  Biso   1.000  C
  C3       1.0000 0.11917  0.29361  0.29361  Biso   1.000  C
  C4       1.0000 0.29361  0.11917  0.29361  Biso   1.000  C
  C5       1.0000 0.70639  0.70639  0.88083  Biso   1.000  C
  C6       1.0000 0.70639  0.70639  0.70639  Biso   1.000  C
  C7       1.0000 0.70639  0.88083  0.70639  Biso   1.000  C
  C8       1.0000 0.88083  0.70639  0.70639  Biso   1.000  C
  C9       1.0000 0.45530  0.45530  0.93770  Biso   1.000  C
  C10      1.0000 0.45530  0.45530  0.15170  Biso   1.000  C
  C11      1.0000 0.93770  0.15170  0.45530  Biso   1.000  C
  C12      1.0000 0.15170  0.93770  0.45530  Biso   1.000  C
  C13      1.0000 0.45530  0.93770  0.15170  Biso   1.000  C
  C14      1.0000 0.45530  0.15170  0.93770  Biso   1.000  C
  C15      1.0000 0.93770  0.45530  0.45530  Biso   1.000  C
  C16      1.0000 0.15170  0.45530  0.45530  Biso   1.000  C
  C17      1.0000 0.45530  0.15170  0.45530  Biso   1.000  C
  C18      1.0000 0.45530  0.93770  0.45530  Biso   1.000  C
  C19      1.0000 0.93770  0.45530  0.15170  Biso   1.000  C
  C20      1.0000 0.15170  0.45530  0.93770  Biso   1.000  C
  C21      1.0000 0.54470  0.54470  0.06230  Biso   1.000  C
  C22      1.0000 0.54470  0.54470  0.84830  Biso   1.000  C
  C23      1.0000 0.84830  0.06230  0.54470  Biso   1.000  C
  C24      1.0000 0.06230  0.84830  0.54470  Biso   1.000  C
  C25      1.0000 0.06230  0.54470  0.84830  Biso   1.000  C
  C26      1.0000 0.84830  0.54470  0.06230  Biso   1.000  C
  C27      1.0000 0.54470  0.06230  0.54470  Biso   1.000  C
  C28      1.0000 0.54470  0.84830  0.54470  Biso   1.000  C
  C29      1.0000 0.84830  0.54470  0.54470  Biso   1.000  C
  C30      1.0000 0.06230  0.54470  0.54470  Biso   1.000  C
  C31      1.0000 0.54470  0.06230  0.84830  Biso   1.000  C
  C32      1.0000 0.54470  0.84830  0.06230  Biso   1.000  C
  C33      1.0000 0.47300  0.47300  0.96450  Biso   1.000  C
  C34      1.0000 0.47300  0.47300  0.08950  Biso   1.000  C
  C35      1.0000 0.96450  0.08950  0.47300  Biso   1.000  C
  C36      1.0000 0.08950  0.96450  0.47300  Biso   1.000  C
  C37      1.0000 0.47300  0.96450  0.08950  Biso   1.000  C
  C38      1.0000 0.47300  0.08950  0.96450  Biso   1.000  C
  C39      1.0000 0.96450  0.47300  0.47300  Biso   1.000  C
  C40      1.0000 0.08950  0.47300  0.47300  Biso   1.000  C
  C41      1.0000 0.47300  0.08950  0.47300  Biso   1.000  C
  C42      1.0000 0.47300  0.96450  0.47300  Biso   1.000  C
  C43      1.0000 0.96450  0.47300  0.08950  Biso   1.000  C
  C44      1.0000 0.08950  0.47300  0.96450  Biso   1.000  C
  C45      1.0000 0.52700  0.52700  0.03550  Biso   1.000  C
  C46      1.0000 0.52700  0.52700  0.91050  Biso   1.000  C
  C47      1.0000 0.91050  0.03550  0.52700  Biso   1.000  C
  C48      1.0000 0.03550  0.91050  0.52700  Biso   1.000  C
  C49      1.0000 0.03550  0.52700  0.91050  Biso   1.000  C
  C50      1.0000 0.91050  0.52700  0.03550  Biso   1.000  C
  C51      1.0000 0.52700  0.03550  0.52700  Biso   1.000  C
  C52      1.0000 0.52700  0.91050  0.52700  Biso   1.000  C
  C53      1.0000 0.91050  0.52700  0.52700  Biso   1.000  C
  C54      1.0000 0.03550  0.52700  0.52700  Biso   1.000  C
  C55      1.0000 0.52700  0.03550  0.91050  Biso   1.000  C
  C56      1.0000 0.52700  0.91050  0.03550  Biso   1.000  C
  C57      1.0000 0.38860  0.38860  0.11140  Biso   1.000  C
  C58      1.0000 0.44600  0.44600  0.05400  Biso   1.000  C
  C59      1.0000 0.11140  0.11140  0.38860  Biso   1.000  C
  C60      1.0000 0.05400  0.05400  0.44600  Biso   1.000  C
  C61      1.0000 0.38860  0.11140  0.11140  Biso   1.000  C
  C62      1.0000 0.44600  0.05400  0.05400  Biso   1.000  C
  C63      1.0000 0.11140  0.38860  0.38860  Biso   1.000  C
  C64      1.0000 0.05400  0.44600  0.44600  Biso   1.000  C
  C65      1.0000 0.38860  0.11140  0.38860  Biso   1.000  C
  C66      1.0000 0.44600  0.05400  0.44600  Biso   1.000  C
  C67      1.0000 0.11140  0.38860  0.11140  Biso   1.000  C
  C68      1.0000 0.05400  0.44600  0.05400  Biso   1.000  C
  C69      1.0000 0.61140  0.61140  0.88860  Biso   1.000  C
  C70      1.0000 0.55400  0.55400  0.94600  Biso   1.000  C
  C71      1.0000 0.88860  0.88860  0.61140  Biso   1.000  C
  C72      1.0000 0.94600  0.94600  0.55400  Biso   1.000  C
  C73      1.0000 0.88860  0.61140  0.88860  Biso   1.000  C
  C74      1.0000 0.94600  0.55400  0.94600  Biso   1.000  C
  C75      1.0000 0.61140  0.88860  0.61140  Biso   1.000  C
  C76      1.0000 0.55400  0.94600  0.55400  Biso   1.000  C
  C77      1.0000 0.88860  0.61140  0.61140  Biso   1.000  C
  C78      1.0000 0.94600  0.55400  0.55400  Biso   1.000  C
  C79      1.0000 0.61140  0.88860  0.88860  Biso   1.000  C
  C80      1.0000 0.55400  0.94600  0.94600  Biso   1.000  C
  C81      1.0000 0.25000  0.25000  0.25000  Biso   1.000  C
  C82      1.0000 0.75000  0.75000  0.75000  Biso   1.000  C
  C83      1.0000 0.36611  0.36611  0.07317  Biso   1.000  C
  C84      1.0000 0.36611  0.36611  0.19461  Biso   1.000  C
  C85      1.0000 0.07317  0.19461  0.36611  Biso   1.000  C
  C86      1.0000 0.19461  0.07317  0.36611  Biso   1.000  C
  C87      1.0000 0.36611  0.07317  0.19461  Biso   1.000  C
  C88      1.0000 0.36611  0.19461  0.07317  Biso   1.000  C
  C89      1.0000 0.07317  0.36611  0.36611  Biso   1.000  C
  C90      1.0000 0.19461  0.36611  0.36611  Biso   1.000  C
  C91      1.0000 0.36611  0.19461  0.36611  Biso   1.000  C
  C92      1.0000 0.36611  0.07317  0.36611  Biso   1.000  C
  C93      1.0000 0.07317  0.36611  0.19461  Biso   1.000  C
  C94      1.0000 0.19461  0.36611  0.07317  Biso   1.000  C
  C95      1.0000 0.63389  0.63389  0.92683  Biso   1.000  C
  C96      1.0000 0.63389  0.63389  0.80539  Biso   1.000  C
  C97      1.0000 0.80539  0.92683  0.63389  Biso   1.000  C
  C98      1.0000 0.92683  0.80539  0.63389  Biso   1.000  C
  C99      1.0000 0.92683  0.63389  0.80539  Biso   1.000  C
  C100     1.0000 0.80539  0.63389  0.92683  Biso   1.000  C
  C101     1.0000 0.63389  0.92683  0.63389  Biso   1.000  C
  C102     1.0000 0.63389  0.80539  0.63389  Biso   1.000  C
  C103     1.0000 0.80539  0.63389  0.63389  Biso   1.000  C
  C104     1.0000 0.92683  0.63389  0.63389  Biso   1.000  C
  C105     1.0000 0.63389  0.92683  0.80539  Biso   1.000  C
  C106     1.0000 0.63389  0.80539  0.92683  Biso   1.000  C
  O1       1.0000 0.58051  0.41947  0.41945  Biso   1.000  O
  O2       1.0000 0.14859  0.83913  0.01199  Biso   1.000  O
  O3       1.0000 0.14859  0.01220  0.01199  Biso   1.000  O
  O4       1.0000 0.58051  0.59254  0.41945  Biso   1.000  O
  O5       1.0000 0.58047  0.41939  0.59273  Biso   1.000  O
  O6       1.0000 0.75335  0.41965  0.41932  Biso   1.000  O
  O7       1.0000 0.14863  0.01228  0.83870  Biso   1.000  O
  O8       1.0000 0.97575  0.01202  0.01212  Biso   1.000  O
  O9       1.0000 0.40444  0.26328  0.78732  Biso   1.000  O
  O10      1.0000 0.40349  0.26482  0.55540  Biso   1.000  O
  O11      1.0000 0.40061  0.55546  0.26561  Biso   1.000  O
  O12      1.0000 0.32466  0.87481  0.64412  Biso   1.000  O
  O13      1.0000 0.32561  0.64340  0.87604  Biso   1.000  O
  O14      1.0000 0.32849  0.64141  0.16582  Biso   1.000  O
  O15      1.0000 0.32466  0.16840  0.64412  Biso   1.000  O
  O16      1.0000 0.32561  0.16686  0.87604  Biso   1.000  O
  O17      1.0000 0.32849  0.87622  0.16582  Biso   1.000  O
  O18      1.0000 0.40444  0.55687  0.78732  Biso   1.000  O
  O19      1.0000 0.40349  0.78828  0.55540  Biso   1.000  O
  O20      1.0000 0.40061  0.79027  0.26561  Biso   1.000  O
  O21      1.0000 0.49359  0.33159  0.59719  Biso   1.000  O
  O22      1.0000 0.42978  0.26728  0.65627  Biso   1.000  O
  O23      1.0000 0.38883  0.24194  0.76104  Biso   1.000  O
  O24      1.0000 0.38887  0.24338  0.61843  Biso   1.000  O
  O25      1.0000 0.75427  0.33220  0.33230  Biso   1.000  O
  O26      1.0000 0.38727  0.61838  0.24200  Biso   1.000  O
  O27      1.0000 0.23551  0.84205  0.83425  Biso   1.000  O
  O28      1.0000 0.29932  0.77301  0.77517  Biso   1.000  O
  O29      1.0000 0.34027  0.81158  0.67040  Biso   1.000  O
  O30      1.0000 0.34023  0.67037  0.81301  Biso   1.000  O
  O31      1.0000 0.97483  0.83848  0.09913  Biso   1.000  O
  O32      1.0000 0.34183  0.66738  0.18944  Biso   1.000  O
  O33      1.0000 0.23551  0.10008  0.83425  Biso   1.000  O
  O34      1.0000 0.29932  0.16439  0.77517  Biso   1.000  O
  O35      1.0000 0.34027  0.18973  0.67040  Biso   1.000  O
  O36      1.0000 0.34023  0.18830  0.81301  Biso   1.000  O
  O37      1.0000 0.97483  0.09947  0.09913  Biso   1.000  O
  O38      1.0000 0.34183  0.81329  0.18944  Biso   1.000  O
  O39      1.0000 0.49359  0.58962  0.59719  Biso   1.000  O
  O40      1.0000 0.42978  0.65867  0.65627  Biso   1.000  O
  O41      1.0000 0.38883  0.62009  0.76104  Biso   1.000  O
  O42      1.0000 0.38887  0.76131  0.61843  Biso   1.000  O
  O43      1.0000 0.75427  0.59319  0.33230  Biso   1.000  O
  O44      1.0000 0.38727  0.76429  0.24200  Biso   1.000  O
  O45      1.0000 0.75230  0.33130  0.59709  Biso   1.000  O
  O46      1.0000 0.49021  0.59428  0.33319  Biso   1.000  O
  O47      1.0000 0.42956  0.65889  0.26463  Biso   1.000  O
  O48      1.0000 0.97680  0.10038  0.83435  Biso   1.000  O
  O49      1.0000 0.23889  0.83740  0.09824  Biso   1.000  O
  O50      1.0000 0.29954  0.77279  0.16681  Biso   1.000  O
  O51      1.0000 0.51098  0.34779  0.64086  Biso   1.000  O
  O52      1.0000 0.50899  0.34701  0.51479  Biso   1.000  O
  O53      1.0000 0.80326  0.34761  0.34851  Biso   1.000  O
  O54      1.0000 0.67356  0.34741  0.34841  Biso   1.000  O
  O55      1.0000 0.50977  0.51307  0.34683  Biso   1.000  O
  O56      1.0000 0.21812  0.91931  0.79058  Biso   1.000  O
  O57      1.0000 0.22011  0.79048  0.91665  Biso   1.000  O
  O58      1.0000 0.92584  0.91909  0.08293  Biso   1.000  O
  O59      1.0000 0.05554  0.78909  0.08303  Biso   1.000  O
  O60      1.0000 0.21933  0.78939  0.08461  Biso   1.000  O
  O61      1.0000 0.21812  0.08388  0.79058  Biso   1.000  O
  O62      1.0000 0.22011  0.08467  0.91665  Biso   1.000  O
  O63      1.0000 0.92584  0.08406  0.08293  Biso   1.000  O
  O64      1.0000 0.05554  0.08426  0.08303  Biso   1.000  O
  O65      1.0000 0.21933  0.91860  0.08461  Biso   1.000  O
  O66      1.0000 0.51098  0.51237  0.64086  Biso   1.000  O
  O67      1.0000 0.50899  0.64119  0.51479  Biso   1.000  O
  O68      1.0000 0.80326  0.51258  0.34851  Biso   1.000  O
  O69      1.0000 0.67356  0.64258  0.34841  Biso   1.000  O
  O70      1.0000 0.50977  0.64228  0.34683  Biso   1.000  O
  O71      1.0000 0.62230  0.46407  0.46154  Biso   1.000  O
  O72      1.0000 0.67387  0.34789  0.64234  Biso   1.000  O
  O73      1.0000 0.80298  0.34800  0.51301  Biso   1.000  O
  O74      1.0000 0.10680  0.96760  0.96990  Biso   1.000  O
  O75      1.0000 0.05523  0.08378  0.78910  Biso   1.000  O
  O76      1.0000 0.92612  0.08368  0.91843  Biso   1.000  O
