data_image0
_cell_length_a       18.2455
_cell_length_b       18.2455
_cell_length_c       18.2455
_cell_angle_alpha    60
_cell_angle_beta     60
_cell_angle_gamma    60

_symmetry_space_group_name_H-M    "P 1"
_symmetry_int_tables_number       1

loop_
  _symmetry_equiv_pos_as_xyz
  'x, y, z'

loop_
  _atom_site_label
  _atom_site_occupancy
  _atom_site_fract_x
  _atom_site_fract_y
  _atom_site_fract_z
  _atom_site_thermal_displace_type
  _atom_site_B_iso_or_equiv
  _atom_site_type_symbol
  C1       1.0000 0.29354  0.29354  0.11938  Biso   1.000  C
  C2       1.0000 0.29354  0.29354  0.29354  Biso   1.000  C
  C3       1.0000 0.11938  0.29354  0.29354  Biso   1.000  C
  C4       1.0000 0.29354  0.11938  0.29354  Biso   1.000  C
  C5       1.0000 0.70646  0.70646  0.88062  Biso   1.000  C
  C6       1.0000 0.70646  0.70646  0.70646  Biso   1.000  C
  C7       1.0000 0.70646  0.88062  0.70646  Biso   1.000  C
  C8       1.0000 0.88062  0.70646  0.70646  Biso   1.000  C
  C9       1.0000 0.45580  0.45580  0.93620  Biso   1.000  C
  C10      1.0000 0.45580  0.45580  0.15220  Biso   1.000  C
  C11      1.0000 0.93620  0.15220  0.45580  Biso   1.000  C
  C12      1.0000 0.15220  0.93620  0.45580  Biso   1.000  C
  C13      1.0000 0.45580  0.93620  0.15220  Biso   1.000  C
  C14      1.0000 0.45580  0.15220  0.93620  Biso   1.000  C
  C15      1.0000 0.93620  0.45580  0.45580  Biso   1.000  C
  C16      1.0000 0.15220  0.45580  0.45580  Biso   1.000  C
  C17      1.0000 0.45580  0.15220  0.45580  Biso   1.000  C
  C18      1.0000 0.45580  0.93620  0.45580  Biso   1.000  C
  C19      1.0000 0.93620  0.45580  0.15220  Biso   1.000  C
  C20      1.0000 0.15220  0.45580  0.93620  Biso   1.000  C
  C21      1.0000 0.54420  0.54420  0.06380  Biso   1.000  C
  C22      1.0000 0.54420  0.54420  0.84780  Biso   1.000  C
  C23      1.0000 0.84780  0.06380  0.54420  Biso   1.000  C
  C24      1.0000 0.06380  0.84780  0.54420  Biso   1.000  C
  C25      1.0000 0.06380  0.54420  0.84780  Biso   1.000  C
  C26      1.0000 0.84780  0.54420  0.06380  Biso   1.000  C
  C27      1.0000 0.54420  0.06380  0.54420  Biso   1.000  C
  C28      1.0000 0.54420  0.84780  0.54420  Biso   1.000  C
  C29      1.0000 0.84780  0.54420  0.54420  Biso   1.000  C
  C30      1.0000 0.06380  0.54420  0.54420  Biso   1.000  C
  C31      1.0000 0.54420  0.06380  0.84780  Biso   1.000  C
  C32      1.0000 0.54420  0.84780  0.06380  Biso   1.000  C
  C33      1.0000 0.47345  0.47345  0.96303  Biso   1.000  C
  C34      1.0000 0.47345  0.47345  0.09007  Biso   1.000  C
  C35      1.0000 0.96303  0.09007  0.47345  Biso   1.000  C
  C36      1.0000 0.09007  0.96303  0.47345  Biso   1.000  C
  C37      1.0000 0.47345  0.96303  0.09007  Biso   1.000  C
  C38      1.0000 0.47345  0.09007  0.96303  Biso   1.000  C
  C39      1.0000 0.96303  0.47345  0.47345  Biso   1.000  C
  C40      1.0000 0.09007  0.47345  0.47345  Biso   1.000  C
  C41      1.0000 0.47345  0.09007  0.47345  Biso   1.000  C
  C42      1.0000 0.47345  0.96303  0.47345  Biso   1.000  C
  C43      1.0000 0.96303  0.47345  0.09007  Biso   1.000  C
  C44      1.0000 0.09007  0.47345  0.96303  Biso   1.000  C
  C45      1.0000 0.52655  0.52655  0.03697  Biso   1.000  C
  C46      1.0000 0.52655  0.52655  0.90993  Biso   1.000  C
  C47      1.0000 0.90993  0.03697  0.52655  Biso   1.000  C
  C48      1.0000 0.03697  0.90993  0.52655  Biso   1.000  C
  C49      1.0000 0.03697  0.52655  0.90993  Biso   1.000  C
  C50      1.0000 0.90993  0.52655  0.03697  Biso   1.000  C
  C51      1.0000 0.52655  0.03697  0.52655  Biso   1.000  C
  C52      1.0000 0.52655  0.90993  0.52655  Biso   1.000  C
  C53      1.0000 0.90993  0.52655  0.52655  Biso   1.000  C
  C54      1.0000 0.03697  0.52655  0.52655  Biso   1.000  C
  C55      1.0000 0.52655  0.03697  0.90993  Biso   1.000  C
  C56      1.0000 0.52655  0.90993  0.03697  Biso   1.000  C
  C57      1.0000 0.38857  0.38857  0.11143  Biso   1.000  C
  C58      1.0000 0.44620  0.44620  0.05380  Biso   1.000  C
  C59      1.0000 0.11143  0.11143  0.38857  Biso   1.000  C
  C60      1.0000 0.05380  0.05380  0.44620  Biso   1.000  C
  C61      1.0000 0.38857  0.11143  0.11143  Biso   1.000  C
  C62      1.0000 0.44620  0.05380  0.05380  Biso   1.000  C
  C63      1.0000 0.11143  0.38857  0.38857  Biso   1.000  C
  C64      1.0000 0.05380  0.44620  0.44620  Biso   1.000  C
  C65      1.0000 0.38857  0.11143  0.38857  Biso   1.000  C
  C66      1.0000 0.44620  0.05380  0.44620  Biso   1.000  C
  C67      1.0000 0.11143  0.38857  0.11143  Biso   1.000  C
  C68      1.0000 0.05380  0.44620  0.05380  Biso   1.000  C
  C69      1.0000 0.61143  0.61143  0.88857  Biso   1.000  C
  C70      1.0000 0.55380  0.55380  0.94620  Biso   1.000  C
  C71      1.0000 0.88857  0.88857  0.61143  Biso   1.000  C
  C72      1.0000 0.94620  0.94620  0.55380  Biso   1.000  C
  C73      1.0000 0.88857  0.61143  0.88857  Biso   1.000  C
  C74      1.0000 0.94620  0.55380  0.94620  Biso   1.000  C
  C75      1.0000 0.61143  0.88857  0.61143  Biso   1.000  C
  C76      1.0000 0.55380  0.94620  0.55380  Biso   1.000  C
  C77      1.0000 0.88857  0.61143  0.61143  Biso   1.000  C
  C78      1.0000 0.94620  0.55380  0.55380  Biso   1.000  C
  C79      1.0000 0.61143  0.88857  0.88857  Biso   1.000  C
  C80      1.0000 0.55380  0.94620  0.94620  Biso   1.000  C
  C81      1.0000 0.25000  0.25000  0.25000  Biso   1.000  C
  C82      1.0000 0.75000  0.75000  0.75000  Biso   1.000  C
  C83      1.0000 0.36603  0.36603  0.07311  Biso   1.000  C
  C84      1.0000 0.36603  0.36603  0.19483  Biso   1.000  C
  C85      1.0000 0.07311  0.19483  0.36603  Biso   1.000  C
  C86      1.0000 0.19483  0.07311  0.36603  Biso   1.000  C
  C87      1.0000 0.36603  0.07311  0.19483  Biso   1.000  C
  C88      1.0000 0.36603  0.19483  0.07311  Biso   1.000  C
  C89      1.0000 0.07311  0.36603  0.36603  Biso   1.000  C
  C90      1.0000 0.19483  0.36603  0.36603  Biso   1.000  C
  C91      1.0000 0.36603  0.19483  0.36603  Biso   1.000  C
  C92      1.0000 0.36603  0.07311  0.36603  Biso   1.000  C
  C93      1.0000 0.07311  0.36603  0.19483  Biso   1.000  C
  C94      1.0000 0.19483  0.36603  0.07311  Biso   1.000  C
  C95      1.0000 0.63397  0.63397  0.92689  Biso   1.000  C
  C96      1.0000 0.63397  0.63397  0.80517  Biso   1.000  C
  C97      1.0000 0.80517  0.92689  0.63397  Biso   1.000  C
  C98      1.0000 0.92689  0.80517  0.63397  Biso   1.000  C
  C99      1.0000 0.92689  0.63397  0.80517  Biso   1.000  C
  C100     1.0000 0.80517  0.63397  0.92689  Biso   1.000  C
  C101     1.0000 0.63397  0.92689  0.63397  Biso   1.000  C
  C102     1.0000 0.63397  0.80517  0.63397  Biso   1.000  C
  C103     1.0000 0.80517  0.63397  0.63397  Biso   1.000  C
  C104     1.0000 0.92689  0.63397  0.63397  Biso   1.000  C
  C105     1.0000 0.63397  0.92689  0.80517  Biso   1.000  C
  C106     1.0000 0.63397  0.80517  0.92689  Biso   1.000  C
  O1       1.0000 0.57835  0.42163  0.42161  Biso   1.000  O
  O2       1.0000 0.14059  0.84345  0.01567  Biso   1.000  O
  O3       1.0000 0.14059  0.01588  0.01567  Biso   1.000  O
  O4       1.0000 0.57835  0.59406  0.42161  Biso   1.000  O
  O5       1.0000 0.57831  0.42155  0.59425  Biso   1.000  O
  O6       1.0000 0.75055  0.42181  0.42148  Biso   1.000  O
  O7       1.0000 0.14063  0.01596  0.84303  Biso   1.000  O
  O8       1.0000 0.96839  0.01570  0.01580  Biso   1.000  O
  O9       1.0000 0.39921  0.26602  0.79183  Biso   1.000  O
  O10      1.0000 0.39826  0.26755  0.55705  Biso   1.000  O
  O11      1.0000 0.39539  0.55711  0.26835  Biso   1.000  O
  O12      1.0000 0.31973  0.87900  0.64544  Biso   1.000  O
  O13      1.0000 0.32067  0.64472  0.88023  Biso   1.000  O
  O14      1.0000 0.32354  0.64274  0.16893  Biso   1.000  O
  O15      1.0000 0.31973  0.17149  0.64544  Biso   1.000  O
  O16      1.0000 0.32067  0.16996  0.88023  Biso   1.000  O
  O17      1.0000 0.32354  0.88040  0.16893  Biso   1.000  O
  O18      1.0000 0.39921  0.55852  0.79183  Biso   1.000  O
  O19      1.0000 0.39826  0.79279  0.55705  Biso   1.000  O
  O20      1.0000 0.39539  0.79477  0.26835  Biso   1.000  O
  O21      1.0000 0.49175  0.33408  0.59869  Biso   1.000  O
  O22      1.0000 0.42818  0.27001  0.65755  Biso   1.000  O
  O23      1.0000 0.38365  0.24476  0.76565  Biso   1.000  O
  O24      1.0000 0.38370  0.24619  0.61985  Biso   1.000  O
  O25      1.0000 0.75146  0.33469  0.33479  Biso   1.000  O
  O26      1.0000 0.38211  0.61981  0.24482  Biso   1.000  O
  O27      1.0000 0.22719  0.84637  0.83859  Biso   1.000  O
  O28      1.0000 0.29076  0.77758  0.77973  Biso   1.000  O
  O29      1.0000 0.33528  0.81601  0.67163  Biso   1.000  O
  O30      1.0000 0.33524  0.67160  0.81743  Biso   1.000  O
  O31      1.0000 0.96748  0.84281  0.10249  Biso   1.000  O
  O32      1.0000 0.33683  0.66862  0.19246  Biso   1.000  O
  O33      1.0000 0.22719  0.10343  0.83859  Biso   1.000  O
  O34      1.0000 0.29076  0.16750  0.77973  Biso   1.000  O
  O35      1.0000 0.33528  0.19275  0.67163  Biso   1.000  O
  O36      1.0000 0.33524  0.19132  0.81743  Biso   1.000  O
  O37      1.0000 0.96748  0.10283  0.10249  Biso   1.000  O
  O38      1.0000 0.33683  0.81771  0.19246  Biso   1.000  O
  O39      1.0000 0.49175  0.59115  0.59869  Biso   1.000  O
  O40      1.0000 0.42818  0.65994  0.65755  Biso   1.000  O
  O41      1.0000 0.38366  0.62150  0.76565  Biso   1.000  O
  O42      1.0000 0.38370  0.76592  0.61985  Biso   1.000  O
  O43      1.0000 0.75146  0.59470  0.33479  Biso   1.000  O
  O44      1.0000 0.38211  0.76889  0.24482  Biso   1.000  O
  O45      1.0000 0.74950  0.33379  0.59859  Biso   1.000  O
  O46      1.0000 0.48839  0.59579  0.33568  Biso   1.000  O
  O47      1.0000 0.42796  0.66016  0.26736  Biso   1.000  O
  O48      1.0000 0.96944  0.10373  0.83869  Biso   1.000  O
  O49      1.0000 0.23055  0.84173  0.10160  Biso   1.000  O
  O50      1.0000 0.29098  0.77736  0.16991  Biso   1.000  O
  O51      1.0000 0.50907  0.35022  0.64220  Biso   1.000  O
  O52      1.0000 0.50710  0.34944  0.51660  Biso   1.000  O
  O53      1.0000 0.80027  0.35004  0.35093  Biso   1.000  O
  O54      1.0000 0.67105  0.34984  0.35083  Biso   1.000  O
  O55      1.0000 0.50788  0.51489  0.34926  Biso   1.000  O
  O56      1.0000 0.20986  0.92333  0.79508  Biso   1.000  O
  O57      1.0000 0.21184  0.79499  0.92068  Biso   1.000  O
  O58      1.0000 0.91867  0.92312  0.08634  Biso   1.000  O
  O59      1.0000 0.04789  0.79360  0.08644  Biso   1.000  O
  O60      1.0000 0.21106  0.79390  0.08802  Biso   1.000  O
  O61      1.0000 0.20987  0.08729  0.79508  Biso   1.000  O
  O62      1.0000 0.21184  0.08807  0.92068  Biso   1.000  O
  O63      1.0000 0.91867  0.08748  0.08634  Biso   1.000  O
  O64      1.0000 0.04789  0.08767  0.08644  Biso   1.000  O
  O65      1.0000 0.21106  0.92263  0.08802  Biso   1.000  O
  O66      1.0000 0.50907  0.51418  0.64220  Biso   1.000  O
  O67      1.0000 0.50710  0.64253  0.51660  Biso   1.000  O
  O68      1.0000 0.80027  0.51439  0.35093  Biso   1.000  O
  O69      1.0000 0.67105  0.64391  0.35083  Biso   1.000  O
  O70      1.0000 0.50788  0.64362  0.34926  Biso   1.000  O
  O71      1.0000 0.61998  0.46607  0.46354  Biso   1.000  O
  O72      1.0000 0.67136  0.35032  0.64367  Biso   1.000  O
  O73      1.0000 0.79999  0.35042  0.51482  Biso   1.000  O
  O74      1.0000 0.09896  0.97145  0.97374  Biso   1.000  O
  O75      1.0000 0.04758  0.08720  0.79361  Biso   1.000  O
  O76      1.0000 0.91895  0.08709  0.92245  Biso   1.000  O
