data_image0
_cell_length_a       18.2888
_cell_length_b       18.2888
_cell_length_c       18.2888
_cell_angle_alpha    60
_cell_angle_beta     60
_cell_angle_gamma    60

_symmetry_space_group_name_H-M    "P 1"
_symmetry_int_tables_number       1

loop_
  _symmetry_equiv_pos_as_xyz
  'x, y, z'

loop_
  _atom_site_label
  _atom_site_occupancy
  _atom_site_fract_x
  _atom_site_fract_y
  _atom_site_fract_z
  _atom_site_thermal_displace_type
  _atom_site_B_iso_or_equiv
  _atom_site_type_symbol
  Zn1      1.0000 0.29344  0.29345  0.11966  Biso   1.000  Zn
  Zn2      1.0000 0.29344  0.29345  0.29345  Biso   1.000  Zn
  Zn3      1.0000 0.11965  0.29345  0.29345  Biso   1.000  Zn
  Zn4      1.0000 0.29344  0.11966  0.29345  Biso   1.000  Zn
  Zn5      1.0000 0.70655  0.70656  0.88034  Biso   1.000  Zn
  Zn6      1.0000 0.70656  0.70655  0.70655  Biso   1.000  Zn
  Zn7      1.0000 0.70655  0.88034  0.70656  Biso   1.000  Zn
  Zn8      1.0000 0.88035  0.70655  0.70655  Biso   1.000  Zn
  H1       1.0000 0.45490  0.45490  0.93490  Biso   1.000  H
  H2       1.0000 0.45490  0.45490  0.15530  Biso   1.000  H
  H3       1.0000 0.93490  0.15530  0.45490  Biso   1.000  H
  H4       1.0000 0.15530  0.93490  0.45490  Biso   1.000  H
  H5       1.0000 0.45490  0.93490  0.15530  Biso   1.000  H
  H6       1.0000 0.45490  0.15530  0.93490  Biso   1.000  H
  H7       1.0000 0.93490  0.45490  0.45490  Biso   1.000  H
  H8       1.0000 0.15530  0.45490  0.45490  Biso   1.000  H
  H9       1.0000 0.45490  0.15530  0.45490  Biso   1.000  H
  H10      1.0000 0.45490  0.93490  0.45490  Biso   1.000  H
  H11      1.0000 0.93490  0.45490  0.15530  Biso   1.000  H
  H12      1.0000 0.15530  0.45490  0.93490  Biso   1.000  H
  H13      1.0000 0.54510  0.54510  0.06510  Biso   1.000  H
  H14      1.0000 0.54510  0.54510  0.84470  Biso   1.000  H
  H15      1.0000 0.84470  0.06510  0.54510  Biso   1.000  H
  H16      1.0000 0.06510  0.84470  0.54510  Biso   1.000  H
  H17      1.0000 0.06510  0.54510  0.84470  Biso   1.000  H
  H18      1.0000 0.84470  0.54510  0.06510  Biso   1.000  H
  H19      1.0000 0.54510  0.06510  0.54510  Biso   1.000  H
  H20      1.0000 0.54510  0.84470  0.54510  Biso   1.000  H
  H21      1.0000 0.84470  0.54510  0.54510  Biso   1.000  H
  H22      1.0000 0.06510  0.54510  0.54510  Biso   1.000  H
  H23      1.0000 0.54510  0.06510  0.84470  Biso   1.000  H
  H24      1.0000 0.54510  0.84470  0.06510  Biso   1.000  H
  C1       1.0000 0.47314  0.47314  0.96174  Biso   1.000  C
  C2       1.0000 0.47314  0.47314  0.09198  Biso   1.000  C
  C3       1.0000 0.96174  0.09198  0.47314  Biso   1.000  C
  C4       1.0000 0.09198  0.96174  0.47314  Biso   1.000  C
  C5       1.0000 0.47314  0.96174  0.09198  Biso   1.000  C
  C6       1.0000 0.47314  0.09198  0.96174  Biso   1.000  C
  C7       1.0000 0.96174  0.47314  0.47314  Biso   1.000  C
  C8       1.0000 0.09198  0.47314  0.47314  Biso   1.000  C
  C9       1.0000 0.47314  0.09198  0.47314  Biso   1.000  C
  C10      1.0000 0.47314  0.96174  0.47314  Biso   1.000  C
  C11      1.0000 0.96174  0.47314  0.09198  Biso   1.000  C
  C12      1.0000 0.09198  0.47314  0.96174  Biso   1.000  C
  C13      1.0000 0.52686  0.52686  0.03826  Biso   1.000  C
  C14      1.0000 0.52686  0.52686  0.90802  Biso   1.000  C
  C15      1.0000 0.90802  0.03826  0.52686  Biso   1.000  C
  C16      1.0000 0.03826  0.90802  0.52686  Biso   1.000  C
  C17      1.0000 0.03826  0.52686  0.90802  Biso   1.000  C
  C18      1.0000 0.90802  0.52686  0.03826  Biso   1.000  C
  C19      1.0000 0.52686  0.03826  0.52686  Biso   1.000  C
  C20      1.0000 0.52686  0.90802  0.52686  Biso   1.000  C
  C21      1.0000 0.90802  0.52686  0.52686  Biso   1.000  C
  C22      1.0000 0.03826  0.52686  0.52686  Biso   1.000  C
  C23      1.0000 0.52686  0.03826  0.90802  Biso   1.000  C
  C24      1.0000 0.52686  0.90802  0.03826  Biso   1.000  C
  C25      1.0000 0.38849  0.38849  0.11151  Biso   1.000  C
  C26      1.0000 0.44624  0.44624  0.05376  Biso   1.000  C
  C27      1.0000 0.11151  0.11151  0.38849  Biso   1.000  C
  C28      1.0000 0.05376  0.05376  0.44624  Biso   1.000  C
  C29      1.0000 0.38849  0.11151  0.11151  Biso   1.000  C
  C30      1.0000 0.44624  0.05376  0.05376  Biso   1.000  C
  C31      1.0000 0.11151  0.38849  0.38849  Biso   1.000  C
  C32      1.0000 0.05376  0.44624  0.44624  Biso   1.000  C
  C33      1.0000 0.38849  0.11151  0.38849  Biso   1.000  C
  C34      1.0000 0.44624  0.05376  0.44624  Biso   1.000  C
  C35      1.0000 0.11151  0.38849  0.11151  Biso   1.000  C
  C36      1.0000 0.05376  0.44624  0.05376  Biso   1.000  C
  C37      1.0000 0.61151  0.61151  0.88849  Biso   1.000  C
  C38      1.0000 0.55376  0.55376  0.94624  Biso   1.000  C
  C39      1.0000 0.88849  0.88849  0.61151  Biso   1.000  C
  C40      1.0000 0.94624  0.94624  0.55376  Biso   1.000  C
  C41      1.0000 0.88849  0.61151  0.88849  Biso   1.000  C
  C42      1.0000 0.94624  0.55376  0.94624  Biso   1.000  C
  C43      1.0000 0.61151  0.88849  0.61151  Biso   1.000  C
  C44      1.0000 0.55376  0.94624  0.55376  Biso   1.000  C
  C45      1.0000 0.88849  0.61151  0.61151  Biso   1.000  C
  C46      1.0000 0.94624  0.55376  0.55376  Biso   1.000  C
  C47      1.0000 0.61151  0.88849  0.88849  Biso   1.000  C
  C48      1.0000 0.55376  0.94624  0.94624  Biso   1.000  C
  O1       1.0000 0.25000  0.25000  0.25000  Biso   1.000  O
  O2       1.0000 0.75000  0.75000  0.75000  Biso   1.000  O
  O3       1.0000 0.36620  0.36620  0.07286  Biso   1.000  O
  O4       1.0000 0.36620  0.36620  0.19474  Biso   1.000  O
  O5       1.0000 0.07286  0.19474  0.36620  Biso   1.000  O
  O6       1.0000 0.19474  0.07286  0.36620  Biso   1.000  O
  O7       1.0000 0.36620  0.07286  0.19474  Biso   1.000  O
  O8       1.0000 0.36620  0.19474  0.07286  Biso   1.000  O
  O9       1.0000 0.07286  0.36620  0.36620  Biso   1.000  O
  O10      1.0000 0.19474  0.36620  0.36620  Biso   1.000  O
  O11      1.0000 0.36620  0.19474  0.36620  Biso   1.000  O
  O12      1.0000 0.36620  0.07286  0.36620  Biso   1.000  O
  O13      1.0000 0.07286  0.36620  0.19474  Biso   1.000  O
  O14      1.0000 0.19474  0.36620  0.07286  Biso   1.000  O
  O15      1.0000 0.63380  0.63380  0.92714  Biso   1.000  O
  O16      1.0000 0.63380  0.63380  0.80526  Biso   1.000  O
  O17      1.0000 0.80526  0.92714  0.63380  Biso   1.000  O
  O18      1.0000 0.92714  0.80526  0.63380  Biso   1.000  O
  O19      1.0000 0.92714  0.63380  0.80526  Biso   1.000  O
  O20      1.0000 0.80526  0.63380  0.92714  Biso   1.000  O
  O21      1.0000 0.63380  0.92714  0.63380  Biso   1.000  O
  O22      1.0000 0.63380  0.80526  0.63380  Biso   1.000  O
  O23      1.0000 0.80526  0.63380  0.63380  Biso   1.000  O
  O24      1.0000 0.92714  0.63380  0.63380  Biso   1.000  O
  O25      1.0000 0.63380  0.92714  0.80526  Biso   1.000  O
  O26      1.0000 0.63380  0.80526  0.92714  Biso   1.000  O
  Zn9      1.0000 0.59173  0.07969  0.72075  Biso   1.000  Zn
  Zn10     1.0000 0.59173  0.25278  0.72075  Biso   1.000  Zn
  Zn11     1.0000 0.41864  0.25278  0.72075  Biso   1.000  Zn
  Zn12     1.0000 0.59173  0.25278  0.54766  Biso   1.000  Zn
  Zn13     1.0000 0.00423  0.66655  0.13453  Biso   1.000  Zn
  Zn14     1.0000 0.00423  0.83964  0.13453  Biso   1.000  Zn
  Zn15     1.0000 0.17732  0.66655  0.13453  Biso   1.000  Zn
  Zn16     1.0000 0.00423  0.66655  0.30762  Biso   1.000  Zn
  H25      1.0000 0.46111  0.89591  0.87795  Biso   1.000  H
  H26      1.0000 0.74893  0.40998  0.59014  Biso   1.000  H
  H27      1.0000 0.23485  0.12216  0.87795  Biso   1.000  H
  H28      1.0000 0.74893  0.40998  0.36388  Biso   1.000  H
  H29      1.0000 0.23485  0.40998  0.59014  Biso   1.000  H
  H30      1.0000 0.74893  0.12216  0.87795  Biso   1.000  H
  H31      1.0000 0.46111  0.40998  0.36388  Biso   1.000  H
  H32      1.0000 0.74893  0.89591  0.87795  Biso   1.000  H
  H33      1.0000 0.74893  0.12216  0.36388  Biso   1.000  H
  H34      1.0000 0.46111  0.40998  0.87795  Biso   1.000  H
  H35      1.0000 0.74893  0.89591  0.59014  Biso   1.000  H
  H36      1.0000 0.23485  0.40998  0.87795  Biso   1.000  H
  H37      1.0000 0.13485  0.50935  0.97733  Biso   1.000  H
  H38      1.0000 0.84703  0.02343  0.26514  Biso   1.000  H
  H39      1.0000 0.36110  0.50935  0.97733  Biso   1.000  H
  H40      1.0000 0.84703  0.79717  0.49140  Biso   1.000  H
  H41      1.0000 0.36110  0.50935  0.26514  Biso   1.000  H
  H42      1.0000 0.84703  0.02343  0.97733  Biso   1.000  H
  H43      1.0000 0.13485  0.50935  0.49140  Biso   1.000  H
  H44      1.0000 0.84703  0.79717  0.97733  Biso   1.000  H
  H45      1.0000 0.84703  0.50935  0.49140  Biso   1.000  H
  H46      1.0000 0.13485  0.02343  0.97733  Biso   1.000  H
  H47      1.0000 0.84703  0.50935  0.26514  Biso   1.000  H
  H48      1.0000 0.36110  0.79717  0.97733  Biso   1.000  H
  C49      1.0000 0.39075  0.92149  0.90034  Biso   1.000  C
  C50      1.0000 0.77131  0.43237  0.51978  Biso   1.000  C
  C51      1.0000 0.26044  0.05181  0.90034  Biso   1.000  C
  C52      1.0000 0.77131  0.43237  0.38946  Biso   1.000  C
  C53      1.0000 0.26044  0.43237  0.51978  Biso   1.000  C
  C54      1.0000 0.77131  0.05181  0.90034  Biso   1.000  C
  C55      1.0000 0.39075  0.43237  0.38946  Biso   1.000  C
  C56      1.0000 0.77131  0.92149  0.90034  Biso   1.000  C
  C57      1.0000 0.77131  0.05181  0.38946  Biso   1.000  C
  C58      1.0000 0.39075  0.43237  0.90034  Biso   1.000  C
  C59      1.0000 0.77131  0.92149  0.51978  Biso   1.000  C
  C60      1.0000 0.26044  0.43237  0.90034  Biso   1.000  C
  C61      1.0000 0.20520  0.48697  0.95494  Biso   1.000  C
  C62      1.0000 0.82464  0.99784  0.33550  Biso   1.000  C
  C63      1.0000 0.33552  0.48697  0.95494  Biso   1.000  C
  C64      1.0000 0.82464  0.86752  0.46582  Biso   1.000  C
  C65      1.0000 0.33552  0.48697  0.33550  Biso   1.000  C
  C66      1.0000 0.82464  0.99784  0.95494  Biso   1.000  C
  C67      1.0000 0.20520  0.48697  0.46582  Biso   1.000  C
  C68      1.0000 0.82464  0.86752  0.95494  Biso   1.000  C
  C69      1.0000 0.82464  0.48697  0.46582  Biso   1.000  C
  C70      1.0000 0.20520  0.99784  0.95494  Biso   1.000  C
  C71      1.0000 0.82464  0.48697  0.33550  Biso   1.000  C
  C72      1.0000 0.33552  0.86752  0.95494  Biso   1.000  C
  C73      1.0000 0.40924  0.07030  0.81669  Biso   1.000  C
  C74      1.0000 0.35278  0.01383  0.87316  Biso   1.000  C
  C75      1.0000 0.68767  0.34872  0.53827  Biso   1.000  C
  C76      1.0000 0.74413  0.40518  0.48181  Biso   1.000  C
  C77      1.0000 0.40924  0.34872  0.53827  Biso   1.000  C
  C78      1.0000 0.35278  0.40518  0.48181  Biso   1.000  C
  C79      1.0000 0.68767  0.07030  0.81669  Biso   1.000  C
  C80      1.0000 0.74413  0.01383  0.87316  Biso   1.000  C
  C81      1.0000 0.68767  0.07030  0.53827  Biso   1.000  C
  C82      1.0000 0.74413  0.01383  0.48181  Biso   1.000  C
  C83      1.0000 0.40924  0.34872  0.81669  Biso   1.000  C
  C84      1.0000 0.35278  0.40518  0.87316  Biso   1.000  C
  C85      1.0000 0.18671  0.57061  0.03859  Biso   1.000  C
  C86      1.0000 0.24318  0.51415  0.98212  Biso   1.000  C
  C87      1.0000 0.90829  0.84904  0.31701  Biso   1.000  C
  C88      1.0000 0.85183  0.90550  0.37347  Biso   1.000  C
  C89      1.0000 0.18671  0.57061  0.31701  Biso   1.000  C
  C90      1.0000 0.24318  0.51415  0.37347  Biso   1.000  C
  C91      1.0000 0.90829  0.84904  0.03859  Biso   1.000  C
  C92      1.0000 0.85183  0.90550  0.98212  Biso   1.000  C
  C93      1.0000 0.90829  0.57061  0.31701  Biso   1.000  C
  C94      1.0000 0.85183  0.51415  0.37347  Biso   1.000  C
  C95      1.0000 0.18671  0.84904  0.03859  Biso   1.000  C
  C96      1.0000 0.24318  0.90550  0.98212  Biso   1.000  C
  O27      1.0000 0.54845  0.20951  0.67748  Biso   1.000  O
  O28      1.0000 0.04750  0.70982  0.17780  Biso   1.000  O
  O29      1.0000 0.49379  0.03292  0.79311  Biso   1.000  O
  O30      1.0000 0.66408  0.32513  0.62282  Biso   1.000  O
  O31      1.0000 0.37187  0.15484  0.79311  Biso   1.000  O
  O32      1.0000 0.66408  0.32513  0.50089  Biso   1.000  O
  O33      1.0000 0.37187  0.32513  0.62282  Biso   1.000  O
  O34      1.0000 0.66408  0.15484  0.79311  Biso   1.000  O
  O35      1.0000 0.49379  0.32513  0.50089  Biso   1.000  O
  O36      1.0000 0.66408  0.03292  0.79311  Biso   1.000  O
  O37      1.0000 0.66408  0.15484  0.50089  Biso   1.000  O
  O38      1.0000 0.49379  0.32513  0.79311  Biso   1.000  O
  O39      1.0000 0.66408  0.03292  0.62282  Biso   1.000  O
  O40      1.0000 0.37187  0.32513  0.79311  Biso   1.000  O
  O41      1.0000 0.10217  0.59420  0.06217  Biso   1.000  O
  O42      1.0000 0.93188  0.88641  0.23246  Biso   1.000  O
  O43      1.0000 0.22409  0.59420  0.06217  Biso   1.000  O
  O44      1.0000 0.93188  0.76449  0.35439  Biso   1.000  O
  O45      1.0000 0.22409  0.59420  0.23246  Biso   1.000  O
  O46      1.0000 0.93188  0.88641  0.06217  Biso   1.000  O
  O47      1.0000 0.10217  0.59420  0.35439  Biso   1.000  O
  O48      1.0000 0.93188  0.76449  0.06217  Biso   1.000  O
  O49      1.0000 0.93188  0.59420  0.35439  Biso   1.000  O
  O50      1.0000 0.10217  0.88641  0.06217  Biso   1.000  O
  O51      1.0000 0.93188  0.59420  0.23246  Biso   1.000  O
  O52      1.0000 0.22409  0.76449  0.06217  Biso   1.000  O
