data_image0
_cell_length_a       18.228
_cell_length_b       18.228
_cell_length_c       18.228
_cell_angle_alpha    60
_cell_angle_beta     60
_cell_angle_gamma    60

_symmetry_space_group_name_H-M    "P 1"
_symmetry_int_tables_number       1

loop_
  _symmetry_equiv_pos_as_xyz
  'x, y, z'

loop_
  _atom_site_label
  _atom_site_occupancy
  _atom_site_fract_x
  _atom_site_fract_y
  _atom_site_fract_z
  _atom_site_thermal_displace_type
  _atom_site_B_iso_or_equiv
  _atom_site_type_symbol
  Zn1      1.0000 0.29358  0.29359  0.11924  Biso   1.000  Zn
  Zn2      1.0000 0.29358  0.29359  0.29359  Biso   1.000  Zn
  Zn3      1.0000 0.11923  0.29359  0.29359  Biso   1.000  Zn
  Zn4      1.0000 0.29358  0.11924  0.29359  Biso   1.000  Zn
  Zn5      1.0000 0.70642  0.70641  0.88076  Biso   1.000  Zn
  Zn6      1.0000 0.70642  0.70641  0.70641  Biso   1.000  Zn
  Zn7      1.0000 0.70642  0.88076  0.70641  Biso   1.000  Zn
  Zn8      1.0000 0.88077  0.70641  0.70641  Biso   1.000  Zn
  H1       1.0000 0.45570  0.45570  0.93670  Biso   1.000  H
  H2       1.0000 0.45570  0.45570  0.15190  Biso   1.000  H
  H3       1.0000 0.93670  0.15190  0.45570  Biso   1.000  H
  H4       1.0000 0.15190  0.93670  0.45570  Biso   1.000  H
  H5       1.0000 0.45570  0.93670  0.15190  Biso   1.000  H
  H6       1.0000 0.45570  0.15190  0.93670  Biso   1.000  H
  H7       1.0000 0.93670  0.45570  0.45570  Biso   1.000  H
  H8       1.0000 0.15190  0.45570  0.45570  Biso   1.000  H
  H9       1.0000 0.45570  0.15190  0.45570  Biso   1.000  H
  H10      1.0000 0.45570  0.93670  0.45570  Biso   1.000  H
  H11      1.0000 0.93670  0.45570  0.15190  Biso   1.000  H
  H12      1.0000 0.15190  0.45570  0.93670  Biso   1.000  H
  H13      1.0000 0.54430  0.54430  0.06330  Biso   1.000  H
  H14      1.0000 0.54430  0.54430  0.84810  Biso   1.000  H
  H15      1.0000 0.84810  0.06330  0.54430  Biso   1.000  H
  H16      1.0000 0.06330  0.84810  0.54430  Biso   1.000  H
  H17      1.0000 0.06330  0.54430  0.84810  Biso   1.000  H
  H18      1.0000 0.84810  0.54430  0.06330  Biso   1.000  H
  H19      1.0000 0.54430  0.06330  0.54430  Biso   1.000  H
  H20      1.0000 0.54430  0.84810  0.54430  Biso   1.000  H
  H21      1.0000 0.84810  0.54430  0.54430  Biso   1.000  H
  H22      1.0000 0.06330  0.54430  0.54430  Biso   1.000  H
  H23      1.0000 0.54430  0.06330  0.84810  Biso   1.000  H
  H24      1.0000 0.54430  0.84810  0.06330  Biso   1.000  H
  C1       1.0000 0.47340  0.47340  0.96356  Biso   1.000  C
  C2       1.0000 0.47340  0.47340  0.08964  Biso   1.000  C
  C3       1.0000 0.96356  0.08964  0.47340  Biso   1.000  C
  C4       1.0000 0.08964  0.96356  0.47340  Biso   1.000  C
  C5       1.0000 0.47340  0.96356  0.08964  Biso   1.000  C
  C6       1.0000 0.47340  0.08964  0.96356  Biso   1.000  C
  C7       1.0000 0.96356  0.47340  0.47340  Biso   1.000  C
  C8       1.0000 0.08964  0.47340  0.47340  Biso   1.000  C
  C9       1.0000 0.47340  0.08964  0.47340  Biso   1.000  C
  C10      1.0000 0.47340  0.96356  0.47340  Biso   1.000  C
  C11      1.0000 0.96356  0.47340  0.08964  Biso   1.000  C
  C12      1.0000 0.08964  0.47340  0.96356  Biso   1.000  C
  C13      1.0000 0.52660  0.52660  0.03644  Biso   1.000  C
  C14      1.0000 0.52660  0.52660  0.91036  Biso   1.000  C
  C15      1.0000 0.91036  0.03644  0.52660  Biso   1.000  C
  C16      1.0000 0.03644  0.91036  0.52660  Biso   1.000  C
  C17      1.0000 0.03644  0.52660  0.91036  Biso   1.000  C
  C18      1.0000 0.91036  0.52660  0.03644  Biso   1.000  C
  C19      1.0000 0.52660  0.03644  0.52660  Biso   1.000  C
  C20      1.0000 0.52660  0.91036  0.52660  Biso   1.000  C
  C21      1.0000 0.91036  0.52660  0.52660  Biso   1.000  C
  C22      1.0000 0.03644  0.52660  0.52660  Biso   1.000  C
  C23      1.0000 0.52660  0.03644  0.91036  Biso   1.000  C
  C24      1.0000 0.52660  0.91036  0.03644  Biso   1.000  C
  C25      1.0000 0.38850  0.38850  0.11150  Biso   1.000  C
  C26      1.0000 0.44610  0.44610  0.05390  Biso   1.000  C
  C27      1.0000 0.11150  0.11150  0.38850  Biso   1.000  C
  C28      1.0000 0.05390  0.05390  0.44610  Biso   1.000  C
  C29      1.0000 0.38850  0.11150  0.11150  Biso   1.000  C
  C30      1.0000 0.44610  0.05390  0.05390  Biso   1.000  C
  C31      1.0000 0.11150  0.38850  0.38850  Biso   1.000  C
  C32      1.0000 0.05390  0.44610  0.44610  Biso   1.000  C
  C33      1.0000 0.38850  0.11150  0.38850  Biso   1.000  C
  C34      1.0000 0.44610  0.05390  0.44610  Biso   1.000  C
  C35      1.0000 0.11150  0.38850  0.11150  Biso   1.000  C
  C36      1.0000 0.05390  0.44610  0.05390  Biso   1.000  C
  C37      1.0000 0.61150  0.61150  0.88850  Biso   1.000  C
  C38      1.0000 0.55390  0.55390  0.94610  Biso   1.000  C
  C39      1.0000 0.88850  0.88850  0.61150  Biso   1.000  C
  C40      1.0000 0.94610  0.94610  0.55390  Biso   1.000  C
  C41      1.0000 0.88850  0.61150  0.88850  Biso   1.000  C
  C42      1.0000 0.94610  0.55390  0.94610  Biso   1.000  C
  C43      1.0000 0.61150  0.88850  0.61150  Biso   1.000  C
  C44      1.0000 0.55390  0.94610  0.55390  Biso   1.000  C
  C45      1.0000 0.88850  0.61150  0.61150  Biso   1.000  C
  C46      1.0000 0.94610  0.55390  0.55390  Biso   1.000  C
  C47      1.0000 0.61150  0.88850  0.88850  Biso   1.000  C
  C48      1.0000 0.55390  0.94610  0.94610  Biso   1.000  C
  O1       1.0000 0.25000  0.25000  0.25000  Biso   1.000  O
  O2       1.0000 0.75000  0.75000  0.75000  Biso   1.000  O
  O3       1.0000 0.36610  0.36610  0.07322  Biso   1.000  O
  O4       1.0000 0.36610  0.36610  0.19458  Biso   1.000  O
  O5       1.0000 0.07322  0.19458  0.36610  Biso   1.000  O
  O6       1.0000 0.19458  0.07322  0.36610  Biso   1.000  O
  O7       1.0000 0.36610  0.07322  0.19458  Biso   1.000  O
  O8       1.0000 0.36610  0.19458  0.07322  Biso   1.000  O
  O9       1.0000 0.07322  0.36610  0.36610  Biso   1.000  O
  O10      1.0000 0.19458  0.36610  0.36610  Biso   1.000  O
  O11      1.0000 0.36610  0.19458  0.36610  Biso   1.000  O
  O12      1.0000 0.36610  0.07322  0.36610  Biso   1.000  O
  O13      1.0000 0.07322  0.36610  0.19458  Biso   1.000  O
  O14      1.0000 0.19458  0.36610  0.07322  Biso   1.000  O
  O15      1.0000 0.63390  0.63390  0.92678  Biso   1.000  O
  O16      1.0000 0.63390  0.63390  0.80542  Biso   1.000  O
  O17      1.0000 0.80542  0.92678  0.63390  Biso   1.000  O
  O18      1.0000 0.92678  0.80542  0.63390  Biso   1.000  O
  O19      1.0000 0.92678  0.63390  0.80542  Biso   1.000  O
  O20      1.0000 0.80542  0.63390  0.92678  Biso   1.000  O
  O21      1.0000 0.63390  0.92678  0.63390  Biso   1.000  O
  O22      1.0000 0.63390  0.80542  0.63390  Biso   1.000  O
  O23      1.0000 0.80542  0.63390  0.63390  Biso   1.000  O
  O24      1.0000 0.92678  0.63390  0.63390  Biso   1.000  O
  O25      1.0000 0.63390  0.92678  0.80542  Biso   1.000  O
  O26      1.0000 0.63390  0.80542  0.92678  Biso   1.000  O
  Zn9      1.0000 0.89301  0.75807  0.43334  Biso   1.000  Zn
  Zn10     1.0000 0.06758  0.75807  0.25878  Biso   1.000  Zn
  Zn11     1.0000 0.89301  0.75807  0.25878  Biso   1.000  Zn
  Zn12     1.0000 0.89301  0.93263  0.25878  Biso   1.000  Zn
  Zn13     1.0000 0.48403  0.34410  0.67025  Biso   1.000  Zn
  Zn14     1.0000 0.30947  0.34410  0.84481  Biso   1.000  Zn
  Zn15     1.0000 0.48403  0.16954  0.84481  Biso   1.000  Zn
  Zn16     1.0000 0.48403  0.34410  0.84481  Biso   1.000  Zn
  H25      1.0000 0.03719  0.59539  0.61451  Biso   1.000  H
  H26      1.0000 0.25124  0.59539  0.40046  Biso   1.000  H
  H27      1.0000 0.73283  0.89975  0.09611  Biso   1.000  H
  H28      1.0000 0.73283  0.11380  0.09611  Biso   1.000  H
  H29      1.0000 0.73283  0.11380  0.40046  Biso   1.000  H
  H30      1.0000 0.73283  0.89975  0.61451  Biso   1.000  H
  H31      1.0000 0.03719  0.59539  0.09611  Biso   1.000  H
  H32      1.0000 0.25124  0.59539  0.09611  Biso   1.000  H
  H33      1.0000 0.25124  0.89975  0.09611  Biso   1.000  H
  H34      1.0000 0.03719  0.11380  0.09611  Biso   1.000  H
  H35      1.0000 0.73283  0.59539  0.40046  Biso   1.000  H
  H36      1.0000 0.73283  0.59539  0.61451  Biso   1.000  H
  H37      1.0000 0.33986  0.50677  0.48908  Biso   1.000  H
  H38      1.0000 0.12581  0.50677  0.70313  Biso   1.000  H
  H39      1.0000 0.64421  0.98837  0.00749  Biso   1.000  H
  H40      1.0000 0.64421  0.20242  0.00749  Biso   1.000  H
  H41      1.0000 0.64421  0.50677  0.70313  Biso   1.000  H
  H42      1.0000 0.64421  0.50677  0.48908  Biso   1.000  H
  H43      1.0000 0.33986  0.98837  0.00749  Biso   1.000  H
  H44      1.0000 0.12581  0.20242  0.00749  Biso   1.000  H
  H45      1.0000 0.12581  0.50677  0.00749  Biso   1.000  H
  H46      1.0000 0.33986  0.50677  0.00749  Biso   1.000  H
  H47      1.0000 0.64421  0.98837  0.70313  Biso   1.000  H
  H48      1.0000 0.64421  0.20242  0.48908  Biso   1.000  H
  C49      1.0000 0.09949  0.57766  0.58767  Biso   1.000  C
  C50      1.0000 0.22440  0.57766  0.46277  Biso   1.000  C
  C51      1.0000 0.71510  0.96206  0.07837  Biso   1.000  C
  C52      1.0000 0.71510  0.08696  0.07837  Biso   1.000  C
  C53      1.0000 0.71510  0.08696  0.46277  Biso   1.000  C
  C54      1.0000 0.71510  0.96206  0.58767  Biso   1.000  C
  C55      1.0000 0.09949  0.57766  0.07837  Biso   1.000  C
  C56      1.0000 0.22440  0.57766  0.07837  Biso   1.000  C
  C57      1.0000 0.22440  0.96206  0.07837  Biso   1.000  C
  C58      1.0000 0.09949  0.08696  0.07837  Biso   1.000  C
  C59      1.0000 0.71510  0.57766  0.46277  Biso   1.000  C
  C60      1.0000 0.71510  0.57766  0.58767  Biso   1.000  C
  C61      1.0000 0.27755  0.52451  0.51592  Biso   1.000  C
  C62      1.0000 0.15265  0.52451  0.64082  Biso   1.000  C
  C63      1.0000 0.66195  0.01521  0.02522  Biso   1.000  C
  C64      1.0000 0.66195  0.14011  0.02522  Biso   1.000  C
  C65      1.0000 0.66195  0.52451  0.64082  Biso   1.000  C
  C66      1.0000 0.66195  0.52451  0.51592  Biso   1.000  C
  C67      1.0000 0.27755  0.01521  0.02522  Biso   1.000  C
  C68      1.0000 0.15265  0.14011  0.02522  Biso   1.000  C
  C69      1.0000 0.15265  0.52451  0.02522  Biso   1.000  C
  C70      1.0000 0.27755  0.52451  0.02522  Biso   1.000  C
  C71      1.0000 0.66195  0.01521  0.64082  Biso   1.000  C
  C72      1.0000 0.66195  0.14011  0.51592  Biso   1.000  C
  C73      1.0000 0.07559  0.66277  0.44135  Biso   1.000  C
  C74      1.0000 0.13344  0.60492  0.49921  Biso   1.000  C
  C75      1.0000 0.79772  0.94064  0.16348  Biso   1.000  C
  C76      1.0000 0.73986  0.99850  0.10563  Biso   1.000  C
  C77      1.0000 0.79772  0.94064  0.44135  Biso   1.000  C
  C78      1.0000 0.73986  0.99850  0.49921  Biso   1.000  C
  C79      1.0000 0.07559  0.66277  0.16348  Biso   1.000  C
  C80      1.0000 0.13344  0.60492  0.10563  Biso   1.000  C
  C81      1.0000 0.07559  0.94064  0.16348  Biso   1.000  C
  C82      1.0000 0.13344  0.99850  0.10563  Biso   1.000  C
  C83      1.0000 0.79772  0.66277  0.44135  Biso   1.000  C
  C84      1.0000 0.73986  0.60492  0.49921  Biso   1.000  C
  C85      1.0000 0.30146  0.43940  0.66224  Biso   1.000  C
  C86      1.0000 0.24360  0.49725  0.60438  Biso   1.000  C
  C87      1.0000 0.57933  0.16153  0.94011  Biso   1.000  C
  C88      1.0000 0.63718  0.10367  0.99796  Biso   1.000  C
  C89      1.0000 0.57933  0.43940  0.66224  Biso   1.000  C
  C90      1.0000 0.63718  0.49725  0.60438  Biso   1.000  C
  C91      1.0000 0.30146  0.16153  0.94011  Biso   1.000  C
  C92      1.0000 0.24360  0.10367  0.99796  Biso   1.000  C
  C93      1.0000 0.30146  0.43940  0.94011  Biso   1.000  C
  C94      1.0000 0.24360  0.49725  0.99796  Biso   1.000  C
  C95      1.0000 0.57933  0.16153  0.66224  Biso   1.000  C
  C96      1.0000 0.63718  0.10367  0.60438  Biso   1.000  C
  O27      1.0000 0.93665  0.80171  0.30242  Biso   1.000  O
  O28      1.0000 0.44039  0.30046  0.80117  Biso   1.000  O
  O29      1.0000 0.99210  0.68537  0.47965  Biso   1.000  O
  O30      1.0000 0.11388  0.68537  0.35787  Biso   1.000  O
  O31      1.0000 0.82031  0.85716  0.18608  Biso   1.000  O
  O32      1.0000 0.82031  0.97894  0.18608  Biso   1.000  O
  O33      1.0000 0.82031  0.97894  0.35787  Biso   1.000  O
  O34      1.0000 0.82031  0.85716  0.47965  Biso   1.000  O
  O35      1.0000 0.99210  0.68537  0.18608  Biso   1.000  O
  O36      1.0000 0.11388  0.68537  0.18608  Biso   1.000  O
  O37      1.0000 0.11388  0.85716  0.18608  Biso   1.000  O
  O38      1.0000 0.99210  0.97894  0.18608  Biso   1.000  O
  O39      1.0000 0.82031  0.68537  0.35787  Biso   1.000  O
  O40      1.0000 0.82031  0.68537  0.47965  Biso   1.000  O
  O41      1.0000 0.38494  0.41680  0.62394  Biso   1.000  O
  O42      1.0000 0.26316  0.41680  0.74573  Biso   1.000  O
  O43      1.0000 0.55673  0.12323  0.91751  Biso   1.000  O
  O44      1.0000 0.55673  0.24501  0.91751  Biso   1.000  O
  O45      1.0000 0.55673  0.41680  0.74573  Biso   1.000  O
  O46      1.0000 0.55673  0.41680  0.62394  Biso   1.000  O
  O47      1.0000 0.38494  0.12323  0.91751  Biso   1.000  O
  O48      1.0000 0.26316  0.24501  0.91751  Biso   1.000  O
  O49      1.0000 0.26316  0.41680  0.91751  Biso   1.000  O
  O50      1.0000 0.38494  0.41680  0.91751  Biso   1.000  O
  O51      1.0000 0.55673  0.12323  0.74573  Biso   1.000  O
  O52      1.0000 0.55673  0.24501  0.62394  Biso   1.000  O
