data_image0
_cell_length_a       18.2507
_cell_length_b       18.2507
_cell_length_c       18.2507
_cell_angle_alpha    60
_cell_angle_beta     60
_cell_angle_gamma    60

_symmetry_space_group_name_H-M    "P 1"
_symmetry_int_tables_number       1

loop_
  _symmetry_equiv_pos_as_xyz
  'x, y, z'

loop_
  _atom_site_label
  _atom_site_occupancy
  _atom_site_fract_x
  _atom_site_fract_y
  _atom_site_fract_z
  _atom_site_thermal_displace_type
  _atom_site_B_iso_or_equiv
  _atom_site_type_symbol
  Zn1      1.0000 0.29354  0.29353  0.11940  Biso   1.000  Zn
  Zn2      1.0000 0.29354  0.29353  0.29353  Biso   1.000  Zn
  Zn3      1.0000 0.11941  0.29353  0.29353  Biso   1.000  Zn
  Zn4      1.0000 0.29354  0.11940  0.29353  Biso   1.000  Zn
  Zn5      1.0000 0.70646  0.70647  0.88060  Biso   1.000  Zn
  Zn6      1.0000 0.70646  0.70647  0.70647  Biso   1.000  Zn
  Zn7      1.0000 0.70646  0.88060  0.70647  Biso   1.000  Zn
  Zn8      1.0000 0.88059  0.70647  0.70647  Biso   1.000  Zn
  H1       1.0000 0.45580  0.45580  0.93620  Biso   1.000  H
  H2       1.0000 0.45580  0.45580  0.15220  Biso   1.000  H
  H3       1.0000 0.93620  0.15220  0.45580  Biso   1.000  H
  H4       1.0000 0.15220  0.93620  0.45580  Biso   1.000  H
  H5       1.0000 0.45580  0.93620  0.15220  Biso   1.000  H
  H6       1.0000 0.45580  0.15220  0.93620  Biso   1.000  H
  H7       1.0000 0.93620  0.45580  0.45580  Biso   1.000  H
  H8       1.0000 0.15220  0.45580  0.45580  Biso   1.000  H
  H9       1.0000 0.45580  0.15220  0.45580  Biso   1.000  H
  H10      1.0000 0.45580  0.93620  0.45580  Biso   1.000  H
  H11      1.0000 0.93620  0.45580  0.15220  Biso   1.000  H
  H12      1.0000 0.15220  0.45580  0.93620  Biso   1.000  H
  H13      1.0000 0.54420  0.54420  0.06380  Biso   1.000  H
  H14      1.0000 0.54420  0.54420  0.84780  Biso   1.000  H
  H15      1.0000 0.84780  0.06380  0.54420  Biso   1.000  H
  H16      1.0000 0.06380  0.84780  0.54420  Biso   1.000  H
  H17      1.0000 0.06380  0.54420  0.84780  Biso   1.000  H
  H18      1.0000 0.84780  0.54420  0.06380  Biso   1.000  H
  H19      1.0000 0.54420  0.06380  0.54420  Biso   1.000  H
  H20      1.0000 0.54420  0.84780  0.54420  Biso   1.000  H
  H21      1.0000 0.84780  0.54420  0.54420  Biso   1.000  H
  H22      1.0000 0.06380  0.54420  0.54420  Biso   1.000  H
  H23      1.0000 0.54420  0.06380  0.84780  Biso   1.000  H
  H24      1.0000 0.54420  0.84780  0.06380  Biso   1.000  H
  C1       1.0000 0.47349  0.47349  0.96297  Biso   1.000  C
  C2       1.0000 0.47349  0.47349  0.09005  Biso   1.000  C
  C3       1.0000 0.96297  0.09005  0.47349  Biso   1.000  C
  C4       1.0000 0.09005  0.96297  0.47349  Biso   1.000  C
  C5       1.0000 0.47349  0.96297  0.09005  Biso   1.000  C
  C6       1.0000 0.47349  0.09005  0.96297  Biso   1.000  C
  C7       1.0000 0.96297  0.47349  0.47349  Biso   1.000  C
  C8       1.0000 0.09005  0.47349  0.47349  Biso   1.000  C
  C9       1.0000 0.47349  0.09005  0.47349  Biso   1.000  C
  C10      1.0000 0.47349  0.96297  0.47349  Biso   1.000  C
  C11      1.0000 0.96297  0.47349  0.09005  Biso   1.000  C
  C12      1.0000 0.09005  0.47349  0.96297  Biso   1.000  C
  C13      1.0000 0.52651  0.52651  0.03703  Biso   1.000  C
  C14      1.0000 0.52651  0.52651  0.90995  Biso   1.000  C
  C15      1.0000 0.90995  0.03703  0.52651  Biso   1.000  C
  C16      1.0000 0.03703  0.90995  0.52651  Biso   1.000  C
  C17      1.0000 0.03703  0.52651  0.90995  Biso   1.000  C
  C18      1.0000 0.90995  0.52651  0.03703  Biso   1.000  C
  C19      1.0000 0.52651  0.03703  0.52651  Biso   1.000  C
  C20      1.0000 0.52651  0.90995  0.52651  Biso   1.000  C
  C21      1.0000 0.90995  0.52651  0.52651  Biso   1.000  C
  C22      1.0000 0.03703  0.52651  0.52651  Biso   1.000  C
  C23      1.0000 0.52651  0.03703  0.90995  Biso   1.000  C
  C24      1.0000 0.52651  0.90995  0.03703  Biso   1.000  C
  C25      1.0000 0.38859  0.38859  0.11141  Biso   1.000  C
  C26      1.0000 0.44630  0.44630  0.05370  Biso   1.000  C
  C27      1.0000 0.11141  0.11141  0.38859  Biso   1.000  C
  C28      1.0000 0.05370  0.05370  0.44630  Biso   1.000  C
  C29      1.0000 0.38859  0.11141  0.11141  Biso   1.000  C
  C30      1.0000 0.44630  0.05370  0.05370  Biso   1.000  C
  C31      1.0000 0.11141  0.38859  0.38859  Biso   1.000  C
  C32      1.0000 0.05370  0.44630  0.44630  Biso   1.000  C
  C33      1.0000 0.38859  0.11141  0.38859  Biso   1.000  C
  C34      1.0000 0.44630  0.05370  0.44630  Biso   1.000  C
  C35      1.0000 0.11141  0.38859  0.11141  Biso   1.000  C
  C36      1.0000 0.05370  0.44630  0.05370  Biso   1.000  C
  C37      1.0000 0.61141  0.61141  0.88859  Biso   1.000  C
  C38      1.0000 0.55370  0.55370  0.94630  Biso   1.000  C
  C39      1.0000 0.88859  0.88859  0.61141  Biso   1.000  C
  C40      1.0000 0.94630  0.94630  0.55370  Biso   1.000  C
  C41      1.0000 0.88859  0.61141  0.88859  Biso   1.000  C
  C42      1.0000 0.94630  0.55370  0.94630  Biso   1.000  C
  C43      1.0000 0.61141  0.88859  0.61141  Biso   1.000  C
  C44      1.0000 0.55370  0.94630  0.55370  Biso   1.000  C
  C45      1.0000 0.88859  0.61141  0.61141  Biso   1.000  C
  C46      1.0000 0.94630  0.55370  0.55370  Biso   1.000  C
  C47      1.0000 0.61141  0.88859  0.88859  Biso   1.000  C
  C48      1.0000 0.55370  0.94630  0.94630  Biso   1.000  C
  O1       1.0000 0.25000  0.25000  0.25000  Biso   1.000  O
  O2       1.0000 0.75000  0.75000  0.75000  Biso   1.000  O
  O3       1.0000 0.36605  0.36605  0.07321  Biso   1.000  O
  O4       1.0000 0.36605  0.36605  0.19469  Biso   1.000  O
  O5       1.0000 0.07321  0.19469  0.36605  Biso   1.000  O
  O6       1.0000 0.19469  0.07321  0.36605  Biso   1.000  O
  O7       1.0000 0.36605  0.07321  0.19469  Biso   1.000  O
  O8       1.0000 0.36605  0.19469  0.07321  Biso   1.000  O
  O9       1.0000 0.07321  0.36605  0.36605  Biso   1.000  O
  O10      1.0000 0.19469  0.36605  0.36605  Biso   1.000  O
  O11      1.0000 0.36605  0.19469  0.36605  Biso   1.000  O
  O12      1.0000 0.36605  0.07321  0.36605  Biso   1.000  O
  O13      1.0000 0.07321  0.36605  0.19469  Biso   1.000  O
  O14      1.0000 0.19469  0.36605  0.07321  Biso   1.000  O
  O15      1.0000 0.63395  0.63395  0.92679  Biso   1.000  O
  O16      1.0000 0.63395  0.63395  0.80531  Biso   1.000  O
  O17      1.0000 0.80531  0.92679  0.63395  Biso   1.000  O
  O18      1.0000 0.92679  0.80531  0.63395  Biso   1.000  O
  O19      1.0000 0.92679  0.63395  0.80531  Biso   1.000  O
  O20      1.0000 0.80531  0.63395  0.92679  Biso   1.000  O
  O21      1.0000 0.63395  0.92679  0.63395  Biso   1.000  O
  O22      1.0000 0.63395  0.80531  0.63395  Biso   1.000  O
  O23      1.0000 0.80531  0.63395  0.63395  Biso   1.000  O
  O24      1.0000 0.92679  0.63395  0.63395  Biso   1.000  O
  O25      1.0000 0.63395  0.92679  0.80531  Biso   1.000  O
  O26      1.0000 0.63395  0.80531  0.92679  Biso   1.000  O
  Zn9      1.0000 0.59619  0.07869  0.71854  Biso   1.000  Zn
  Zn10     1.0000 0.59619  0.25322  0.71854  Biso   1.000  Zn
  Zn11     1.0000 0.42167  0.25322  0.71854  Biso   1.000  Zn
  Zn12     1.0000 0.59620  0.25322  0.54401  Biso   1.000  Zn
  Zn13     1.0000 0.01915  0.66255  0.12786  Biso   1.000  Zn
  Zn14     1.0000 0.01914  0.83708  0.12787  Biso   1.000  Zn
  Zn15     1.0000 0.19367  0.66256  0.12786  Biso   1.000  Zn
  Zn16     1.0000 0.01914  0.66256  0.30239  Biso   1.000  Zn
  H25      1.0000 0.45813  0.89164  0.88110  Biso   1.000  H
  H26      1.0000 0.75876  0.41578  0.58046  Biso   1.000  H
  H27      1.0000 0.23462  0.11515  0.88110  Biso   1.000  H
  H28      1.0000 0.75876  0.41578  0.35695  Biso   1.000  H
  H29      1.0000 0.23462  0.41578  0.58046  Biso   1.000  H
  H30      1.0000 0.75876  0.11515  0.88110  Biso   1.000  H
  H31      1.0000 0.45813  0.41578  0.35695  Biso   1.000  H
  H32      1.0000 0.75876  0.89164  0.88110  Biso   1.000  H
  H33      1.0000 0.75876  0.11515  0.35695  Biso   1.000  H
  H34      1.0000 0.45813  0.41578  0.88110  Biso   1.000  H
  H35      1.0000 0.75876  0.89164  0.58046  Biso   1.000  H
  H36      1.0000 0.23462  0.41578  0.88110  Biso   1.000  H
  H37      1.0000 0.15722  0.49999  0.96530  Biso   1.000  H
  H38      1.0000 0.85658  0.02413  0.26594  Biso   1.000  H
  H39      1.0000 0.38073  0.49999  0.96530  Biso   1.000  H
  H40      1.0000 0.85658  0.80062  0.48945  Biso   1.000  H
  H41      1.0000 0.38073  0.49999  0.26594  Biso   1.000  H
  H42      1.0000 0.85658  0.02413  0.96530  Biso   1.000  H
  H43      1.0000 0.15722  0.49999  0.48945  Biso   1.000  H
  H44      1.0000 0.85658  0.80062  0.96530  Biso   1.000  H
  H45      1.0000 0.85658  0.49999  0.48945  Biso   1.000  H
  H46      1.0000 0.15722  0.02413  0.96530  Biso   1.000  H
  H47      1.0000 0.85658  0.49999  0.26594  Biso   1.000  H
  H48      1.0000 0.38073  0.80062  0.96530  Biso   1.000  H
  C49      1.0000 0.39456  0.91832  0.89954  Biso   1.000  C
  C50      1.0000 0.77721  0.43422  0.51689  Biso   1.000  C
  C51      1.0000 0.26130  0.05158  0.89954  Biso   1.000  C
  C52      1.0000 0.77721  0.43422  0.38363  Biso   1.000  C
  C53      1.0000 0.26130  0.43422  0.51689  Biso   1.000  C
  C54      1.0000 0.77721  0.05158  0.89954  Biso   1.000  C
  C55      1.0000 0.39456  0.43422  0.38363  Biso   1.000  C
  C56      1.0000 0.77721  0.91832  0.89954  Biso   1.000  C
  C57      1.0000 0.77721  0.05158  0.38363  Biso   1.000  C
  C58      1.0000 0.39456  0.43422  0.89954  Biso   1.000  C
  C59      1.0000 0.77721  0.91832  0.51689  Biso   1.000  C
  C60      1.0000 0.26130  0.43422  0.89954  Biso   1.000  C
  C61      1.0000 0.22079  0.48154  0.94686  Biso   1.000  C
  C62      1.0000 0.83814  0.99745  0.32951  Biso   1.000  C
  C63      1.0000 0.35405  0.48154  0.94686  Biso   1.000  C
  C64      1.0000 0.83814  0.86419  0.46277  Biso   1.000  C
  C65      1.0000 0.35405  0.48154  0.32951  Biso   1.000  C
  C66      1.0000 0.83814  0.99745  0.94686  Biso   1.000  C
  C67      1.0000 0.22079  0.48154  0.46277  Biso   1.000  C
  C68      1.0000 0.83814  0.86419  0.94686  Biso   1.000  C
  C69      1.0000 0.83814  0.48154  0.46277  Biso   1.000  C
  C70      1.0000 0.22079  0.99745  0.94686  Biso   1.000  C
  C71      1.0000 0.83814  0.48154  0.32951  Biso   1.000  C
  C72      1.0000 0.35405  0.86419  0.94686  Biso   1.000  C
  C73      1.0000 0.41305  0.07006  0.81442  Biso   1.000  C
  C74      1.0000 0.35504  0.01206  0.87243  Biso   1.000  C
  C75      1.0000 0.69209  0.34911  0.53538  Biso   1.000  C
  C76      1.0000 0.75009  0.40711  0.47738  Biso   1.000  C
  C77      1.0000 0.41305  0.34911  0.53538  Biso   1.000  C
  C78      1.0000 0.35504  0.40711  0.47738  Biso   1.000  C
  C79      1.0000 0.69209  0.07006  0.81442  Biso   1.000  C
  C80      1.0000 0.75009  0.01206  0.87243  Biso   1.000  C
  C81      1.0000 0.69209  0.07006  0.53538  Biso   1.000  C
  C82      1.0000 0.75009  0.01206  0.47738  Biso   1.000  C
  C83      1.0000 0.41305  0.34911  0.81442  Biso   1.000  C
  C84      1.0000 0.35504  0.40711  0.87243  Biso   1.000  C
  C85      1.0000 0.20230  0.56666  0.03198  Biso   1.000  C
  C86      1.0000 0.26030  0.50866  0.97397  Biso   1.000  C
  C87      1.0000 0.92325  0.84571  0.31102  Biso   1.000  C
  C88      1.0000 0.86525  0.90371  0.36902  Biso   1.000  C
  C89      1.0000 0.20230  0.56666  0.31102  Biso   1.000  C
  C90      1.0000 0.26030  0.50866  0.36902  Biso   1.000  C
  C91      1.0000 0.92325  0.84571  0.03198  Biso   1.000  C
  C92      1.0000 0.86525  0.90371  0.97397  Biso   1.000  C
  C93      1.0000 0.92325  0.56666  0.31102  Biso   1.000  C
  C94      1.0000 0.86525  0.50866  0.36902  Biso   1.000  C
  C95      1.0000 0.20230  0.84571  0.03198  Biso   1.000  C
  C96      1.0000 0.26030  0.90371  0.97397  Biso   1.000  C
  O27      1.0000 0.55257  0.20959  0.67490  Biso   1.000  O
  O28      1.0000 0.06278  0.70618  0.17150  Biso   1.000  O
  O29      1.0000 0.49731  0.03065  0.79200  Biso   1.000  O
  O30      1.0000 0.66967  0.32669  0.61964  Biso   1.000  O
  O31      1.0000 0.37363  0.15432  0.79200  Biso   1.000  O
  O32      1.0000 0.66967  0.32669  0.49596  Biso   1.000  O
  O33      1.0000 0.37363  0.32669  0.61964  Biso   1.000  O
  O34      1.0000 0.66967  0.15432  0.79200  Biso   1.000  O
  O35      1.0000 0.49731  0.32669  0.49596  Biso   1.000  O
  O36      1.0000 0.66967  0.03065  0.79200  Biso   1.000  O
  O37      1.0000 0.66967  0.15432  0.49596  Biso   1.000  O
  O38      1.0000 0.49731  0.32669  0.79200  Biso   1.000  O
  O39      1.0000 0.66967  0.03065  0.61964  Biso   1.000  O
  O40      1.0000 0.37363  0.32669  0.79200  Biso   1.000  O
  O41      1.0000 0.11804  0.58908  0.05440  Biso   1.000  O
  O42      1.0000 0.94568  0.88512  0.22676  Biso   1.000  O
  O43      1.0000 0.24172  0.58908  0.05440  Biso   1.000  O
  O44      1.0000 0.94568  0.76145  0.35044  Biso   1.000  O
  O45      1.0000 0.24172  0.58908  0.22676  Biso   1.000  O
  O46      1.0000 0.94568  0.88512  0.05440  Biso   1.000  O
  O47      1.0000 0.11804  0.58908  0.35044  Biso   1.000  O
  O48      1.0000 0.94568  0.76145  0.05440  Biso   1.000  O
  O49      1.0000 0.94568  0.58908  0.35044  Biso   1.000  O
  O50      1.0000 0.11804  0.88512  0.05440  Biso   1.000  O
  O51      1.0000 0.94568  0.58908  0.22676  Biso   1.000  O
  O52      1.0000 0.24172  0.76145  0.05440  Biso   1.000  O
