data_image0
_cell_length_a       18.2789
_cell_length_b       18.2789
_cell_length_c       18.2789
_cell_angle_alpha    60
_cell_angle_beta     60
_cell_angle_gamma    60

_symmetry_space_group_name_H-M    "P 1"
_symmetry_int_tables_number       1

loop_
  _symmetry_equiv_pos_as_xyz
  'x, y, z'

loop_
  _atom_site_label
  _atom_site_occupancy
  _atom_site_fract_x
  _atom_site_fract_y
  _atom_site_fract_z
  _atom_site_thermal_displace_type
  _atom_site_B_iso_or_equiv
  _atom_site_type_symbol
  Zn1      1.0000 0.29348  0.29347  0.11958  Biso   1.000  Zn
  Zn2      1.0000 0.29348  0.29347  0.29347  Biso   1.000  Zn
  Zn3      1.0000 0.11959  0.29347  0.29347  Biso   1.000  Zn
  Zn4      1.0000 0.29348  0.11958  0.29347  Biso   1.000  Zn
  Zn5      1.0000 0.70652  0.70653  0.88042  Biso   1.000  Zn
  Zn6      1.0000 0.70652  0.70653  0.70653  Biso   1.000  Zn
  Zn7      1.0000 0.70652  0.88042  0.70653  Biso   1.000  Zn
  Zn8      1.0000 0.88041  0.70653  0.70653  Biso   1.000  Zn
  H1       1.0000 0.45520  0.45520  0.93520  Biso   1.000  H
  H2       1.0000 0.45520  0.45520  0.15440  Biso   1.000  H
  H3       1.0000 0.93520  0.15440  0.45520  Biso   1.000  H
  H4       1.0000 0.15440  0.93520  0.45520  Biso   1.000  H
  H5       1.0000 0.45520  0.93520  0.15440  Biso   1.000  H
  H6       1.0000 0.45520  0.15440  0.93520  Biso   1.000  H
  H7       1.0000 0.93520  0.45520  0.45520  Biso   1.000  H
  H8       1.0000 0.15440  0.45520  0.45520  Biso   1.000  H
  H9       1.0000 0.45520  0.15440  0.45520  Biso   1.000  H
  H10      1.0000 0.45520  0.93520  0.45520  Biso   1.000  H
  H11      1.0000 0.93520  0.45520  0.15440  Biso   1.000  H
  H12      1.0000 0.15440  0.45520  0.93520  Biso   1.000  H
  H13      1.0000 0.54480  0.54480  0.06480  Biso   1.000  H
  H14      1.0000 0.54480  0.54480  0.84560  Biso   1.000  H
  H15      1.0000 0.84560  0.06480  0.54480  Biso   1.000  H
  H16      1.0000 0.06480  0.84560  0.54480  Biso   1.000  H
  H17      1.0000 0.06480  0.54480  0.84560  Biso   1.000  H
  H18      1.0000 0.84560  0.54480  0.06480  Biso   1.000  H
  H19      1.0000 0.54480  0.06480  0.54480  Biso   1.000  H
  H20      1.0000 0.54480  0.84560  0.54480  Biso   1.000  H
  H21      1.0000 0.84560  0.54480  0.54480  Biso   1.000  H
  H22      1.0000 0.06480  0.54480  0.54480  Biso   1.000  H
  H23      1.0000 0.54480  0.06480  0.84560  Biso   1.000  H
  H24      1.0000 0.54480  0.84560  0.06480  Biso   1.000  H
  C1       1.0000 0.47338  0.47338  0.96214  Biso   1.000  C
  C2       1.0000 0.47338  0.47338  0.09110  Biso   1.000  C
  C3       1.0000 0.96214  0.09110  0.47338  Biso   1.000  C
  C4       1.0000 0.09110  0.96214  0.47338  Biso   1.000  C
  C5       1.0000 0.47338  0.96214  0.09110  Biso   1.000  C
  C6       1.0000 0.47338  0.09110  0.96214  Biso   1.000  C
  C7       1.0000 0.96214  0.47338  0.47338  Biso   1.000  C
  C8       1.0000 0.09110  0.47338  0.47338  Biso   1.000  C
  C9       1.0000 0.47338  0.09110  0.47338  Biso   1.000  C
  C10      1.0000 0.47338  0.96214  0.47338  Biso   1.000  C
  C11      1.0000 0.96214  0.47338  0.09110  Biso   1.000  C
  C12      1.0000 0.09110  0.47338  0.96214  Biso   1.000  C
  C13      1.0000 0.52662  0.52662  0.03786  Biso   1.000  C
  C14      1.0000 0.52662  0.52662  0.90890  Biso   1.000  C
  C15      1.0000 0.90890  0.03786  0.52662  Biso   1.000  C
  C16      1.0000 0.03786  0.90890  0.52662  Biso   1.000  C
  C17      1.0000 0.03786  0.52662  0.90890  Biso   1.000  C
  C18      1.0000 0.90890  0.52662  0.03786  Biso   1.000  C
  C19      1.0000 0.52662  0.03786  0.52662  Biso   1.000  C
  C20      1.0000 0.52662  0.90890  0.52662  Biso   1.000  C
  C21      1.0000 0.90890  0.52662  0.52662  Biso   1.000  C
  C22      1.0000 0.03786  0.52662  0.52662  Biso   1.000  C
  C23      1.0000 0.52662  0.03786  0.90890  Biso   1.000  C
  C24      1.0000 0.52662  0.90890  0.03786  Biso   1.000  C
  C25      1.0000 0.38853  0.38853  0.11147  Biso   1.000  C
  C26      1.0000 0.44615  0.44615  0.05385  Biso   1.000  C
  C27      1.0000 0.11147  0.11147  0.38853  Biso   1.000  C
  C28      1.0000 0.05385  0.05385  0.44615  Biso   1.000  C
  C29      1.0000 0.38853  0.11147  0.11147  Biso   1.000  C
  C30      1.0000 0.44615  0.05385  0.05385  Biso   1.000  C
  C31      1.0000 0.11147  0.38853  0.38853  Biso   1.000  C
  C32      1.0000 0.05385  0.44615  0.44615  Biso   1.000  C
  C33      1.0000 0.38853  0.11147  0.38853  Biso   1.000  C
  C34      1.0000 0.44615  0.05385  0.44615  Biso   1.000  C
  C35      1.0000 0.11147  0.38853  0.11147  Biso   1.000  C
  C36      1.0000 0.05385  0.44615  0.05385  Biso   1.000  C
  C37      1.0000 0.61147  0.61147  0.88853  Biso   1.000  C
  C38      1.0000 0.55385  0.55385  0.94615  Biso   1.000  C
  C39      1.0000 0.88853  0.88853  0.61147  Biso   1.000  C
  C40      1.0000 0.94615  0.94615  0.55385  Biso   1.000  C
  C41      1.0000 0.88853  0.61147  0.88853  Biso   1.000  C
  C42      1.0000 0.94615  0.55385  0.94615  Biso   1.000  C
  C43      1.0000 0.61147  0.88853  0.61147  Biso   1.000  C
  C44      1.0000 0.55385  0.94615  0.55385  Biso   1.000  C
  C45      1.0000 0.88853  0.61147  0.61147  Biso   1.000  C
  C46      1.0000 0.94615  0.55385  0.55385  Biso   1.000  C
  C47      1.0000 0.61147  0.88853  0.88853  Biso   1.000  C
  C48      1.0000 0.55385  0.94615  0.94615  Biso   1.000  C
  O1       1.0000 0.25000  0.25000  0.25000  Biso   1.000  O
  O2       1.0000 0.75000  0.75000  0.75000  Biso   1.000  O
  O3       1.0000 0.36624  0.36624  0.07286  Biso   1.000  O
  O4       1.0000 0.36624  0.36624  0.19466  Biso   1.000  O
  O5       1.0000 0.07286  0.19466  0.36624  Biso   1.000  O
  O6       1.0000 0.19466  0.07286  0.36624  Biso   1.000  O
  O7       1.0000 0.36624  0.07286  0.19466  Biso   1.000  O
  O8       1.0000 0.36624  0.19466  0.07286  Biso   1.000  O
  O9       1.0000 0.07286  0.36624  0.36624  Biso   1.000  O
  O10      1.0000 0.19466  0.36624  0.36624  Biso   1.000  O
  O11      1.0000 0.36624  0.19466  0.36624  Biso   1.000  O
  O12      1.0000 0.36624  0.07286  0.36624  Biso   1.000  O
  O13      1.0000 0.07286  0.36624  0.19466  Biso   1.000  O
  O14      1.0000 0.19466  0.36624  0.07286  Biso   1.000  O
  O15      1.0000 0.63376  0.63376  0.92714  Biso   1.000  O
  O16      1.0000 0.63376  0.63376  0.80534  Biso   1.000  O
  O17      1.0000 0.80534  0.92714  0.63376  Biso   1.000  O
  O18      1.0000 0.92714  0.80534  0.63376  Biso   1.000  O
  O19      1.0000 0.92714  0.63376  0.80534  Biso   1.000  O
  O20      1.0000 0.80534  0.63376  0.92714  Biso   1.000  O
  O21      1.0000 0.63376  0.92714  0.63376  Biso   1.000  O
  O22      1.0000 0.63376  0.80534  0.63376  Biso   1.000  O
  O23      1.0000 0.80534  0.63376  0.63376  Biso   1.000  O
  O24      1.0000 0.92714  0.63376  0.63376  Biso   1.000  O
  O25      1.0000 0.63376  0.92714  0.80534  Biso   1.000  O
  O26      1.0000 0.63376  0.80534  0.92714  Biso   1.000  O
  Zn9      1.0000 0.50173  0.51924  0.33450  Biso   1.000  Zn
  Zn10     1.0000 0.50173  0.51924  0.50809  Biso   1.000  Zn
  Zn11     1.0000 0.32814  0.51924  0.50809  Biso   1.000  Zn
  Zn12     1.0000 0.50173  0.34564  0.50809  Biso   1.000  Zn
  Zn13     1.0000 0.91338  0.93090  0.09335  Biso   1.000  Zn
  Zn14     1.0000 0.91338  0.93090  0.91976  Biso   1.000  Zn
  Zn15     1.0000 0.91338  0.10450  0.91976  Biso   1.000  Zn
  Zn16     1.0000 0.08697  0.93090  0.91976  Biso   1.000  Zn
  H25      1.0000 0.66349  0.68101  0.14878  Biso   1.000  H
  H26      1.0000 0.66349  0.68101  0.36720  Biso   1.000  H
  H27      1.0000 0.14241  0.37834  0.66986  Biso   1.000  H
  H28      1.0000 0.36083  0.15993  0.66986  Biso   1.000  H
  H29      1.0000 0.66349  0.15993  0.36720  Biso   1.000  H
  H30      1.0000 0.66349  0.37834  0.14878  Biso   1.000  H
  H31      1.0000 0.14241  0.68101  0.66986  Biso   1.000  H
  H32      1.0000 0.36083  0.68101  0.66986  Biso   1.000  H
  H33      1.0000 0.66349  0.37834  0.66986  Biso   1.000  H
  H34      1.0000 0.66349  0.15993  0.66986  Biso   1.000  H
  H35      1.0000 0.14241  0.68101  0.36720  Biso   1.000  H
  H36      1.0000 0.36083  0.68101  0.14878  Biso   1.000  H
  H37      1.0000 0.75162  0.76914  0.27907  Biso   1.000  H
  H38      1.0000 0.75162  0.76914  0.06065  Biso   1.000  H
  H39      1.0000 0.05428  0.29022  0.75799  Biso   1.000  H
  H40      1.0000 0.27270  0.07180  0.75799  Biso   1.000  H
  H41      1.0000 0.27270  0.76914  0.06065  Biso   1.000  H
  H42      1.0000 0.05428  0.76914  0.27907  Biso   1.000  H
  H43      1.0000 0.75162  0.29022  0.75799  Biso   1.000  H
  H44      1.0000 0.75162  0.07180  0.75799  Biso   1.000  H
  H45      1.0000 0.05428  0.76914  0.75799  Biso   1.000  H
  H46      1.0000 0.27270  0.76914  0.75799  Biso   1.000  H
  H47      1.0000 0.75162  0.29022  0.06065  Biso   1.000  H
  H48      1.0000 0.75162  0.07180  0.27907  Biso   1.000  H
  C49      1.0000 0.68113  0.69864  0.17547  Biso   1.000  C
  C50      1.0000 0.68113  0.69864  0.30524  Biso   1.000  C
  C51      1.0000 0.16910  0.31639  0.68750  Biso   1.000  C
  C52      1.0000 0.29887  0.18661  0.68750  Biso   1.000  C
  C53      1.0000 0.68113  0.18661  0.30524  Biso   1.000  C
  C54      1.0000 0.68113  0.31639  0.17547  Biso   1.000  C
  C55      1.0000 0.16910  0.69864  0.68750  Biso   1.000  C
  C56      1.0000 0.29887  0.69864  0.68750  Biso   1.000  C
  C57      1.0000 0.68113  0.31639  0.68750  Biso   1.000  C
  C58      1.0000 0.68113  0.18661  0.68750  Biso   1.000  C
  C59      1.0000 0.16910  0.69864  0.30524  Biso   1.000  C
  C60      1.0000 0.29887  0.69864  0.17547  Biso   1.000  C
  C61      1.0000 0.73398  0.75150  0.25238  Biso   1.000  C
  C62      1.0000 0.73398  0.75150  0.12261  Biso   1.000  C
  C63      1.0000 0.11624  0.26353  0.74035  Biso   1.000  C
  C64      1.0000 0.24601  0.13376  0.74035  Biso   1.000  C
  C65      1.0000 0.24601  0.75150  0.12261  Biso   1.000  C
  C66      1.0000 0.11624  0.75150  0.25238  Biso   1.000  C
  C67      1.0000 0.73398  0.26353  0.74035  Biso   1.000  C
  C68      1.0000 0.73398  0.13376  0.74035  Biso   1.000  C
  C69      1.0000 0.11624  0.75150  0.74035  Biso   1.000  C
  C70      1.0000 0.24601  0.75150  0.74035  Biso   1.000  C
  C71      1.0000 0.73398  0.26353  0.12261  Biso   1.000  C
  C72      1.0000 0.73398  0.13376  0.25238  Biso   1.000  C
  C73      1.0000 0.59649  0.61400  0.32653  Biso   1.000  C
  C74      1.0000 0.65402  0.67154  0.26900  Biso   1.000  C
  C75      1.0000 0.32016  0.33768  0.60286  Biso   1.000  C
  C76      1.0000 0.26263  0.28015  0.66039  Biso   1.000  C
  C77      1.0000 0.59649  0.33768  0.32653  Biso   1.000  C
  C78      1.0000 0.65402  0.28015  0.26900  Biso   1.000  C
  C79      1.0000 0.32016  0.61400  0.60286  Biso   1.000  C
  C80      1.0000 0.26263  0.67154  0.66039  Biso   1.000  C
  C81      1.0000 0.59649  0.33768  0.60286  Biso   1.000  C
  C82      1.0000 0.65402  0.28015  0.66039  Biso   1.000  C
  C83      1.0000 0.32016  0.61400  0.32653  Biso   1.000  C
  C84      1.0000 0.26263  0.67154  0.26900  Biso   1.000  C
  C85      1.0000 0.81862  0.83614  0.10132  Biso   1.000  C
  C86      1.0000 0.76109  0.77861  0.15885  Biso   1.000  C
  C87      1.0000 0.09495  0.11246  0.82499  Biso   1.000  C
  C88      1.0000 0.15248  0.17000  0.76746  Biso   1.000  C
  C89      1.0000 0.09495  0.83614  0.10132  Biso   1.000  C
  C90      1.0000 0.15248  0.77861  0.15885  Biso   1.000  C
  C91      1.0000 0.81862  0.11246  0.82499  Biso   1.000  C
  C92      1.0000 0.76109  0.17000  0.76746  Biso   1.000  C
  C93      1.0000 0.09495  0.83614  0.82499  Biso   1.000  C
  C94      1.0000 0.15248  0.77861  0.76746  Biso   1.000  C
  C95      1.0000 0.81862  0.11246  0.10132  Biso   1.000  C
  C96      1.0000 0.76109  0.17000  0.15885  Biso   1.000  C
  O27      1.0000 0.45832  0.47584  0.46470  Biso   1.000  O
  O28      1.0000 0.95678  0.97430  0.96315  Biso   1.000  O
  O29      1.0000 0.57402  0.59153  0.28845  Biso   1.000  O
  O30      1.0000 0.57402  0.59153  0.40956  Biso   1.000  O
  O31      1.0000 0.28208  0.42070  0.58039  Biso   1.000  O
  O32      1.0000 0.40319  0.29960  0.58039  Biso   1.000  O
  O33      1.0000 0.57402  0.29960  0.40956  Biso   1.000  O
  O34      1.0000 0.57402  0.42070  0.28845  Biso   1.000  O
  O35      1.0000 0.28208  0.59153  0.58039  Biso   1.000  O
  O36      1.0000 0.40319  0.59153  0.58039  Biso   1.000  O
  O37      1.0000 0.57402  0.42070  0.58039  Biso   1.000  O
  O38      1.0000 0.57402  0.29960  0.58039  Biso   1.000  O
  O39      1.0000 0.28208  0.59153  0.40956  Biso   1.000  O
  O40      1.0000 0.40319  0.59153  0.28845  Biso   1.000  O
  O41      1.0000 0.84109  0.85861  0.13940  Biso   1.000  O
  O42      1.0000 0.84109  0.85861  0.01829  Biso   1.000  O
  O43      1.0000 0.01192  0.15055  0.84746  Biso   1.000  O
  O44      1.0000 0.13303  0.02944  0.84746  Biso   1.000  O
  O45      1.0000 0.13303  0.85861  0.01829  Biso   1.000  O
  O46      1.0000 0.01192  0.85861  0.13940  Biso   1.000  O
  O47      1.0000 0.84109  0.15055  0.84746  Biso   1.000  O
  O48      1.0000 0.84109  0.02944  0.84746  Biso   1.000  O
  O49      1.0000 0.01192  0.85861  0.84746  Biso   1.000  O
  O50      1.0000 0.13303  0.85861  0.84746  Biso   1.000  O
  O51      1.0000 0.84109  0.15055  0.01829  Biso   1.000  O
  O52      1.0000 0.84109  0.02944  0.13940  Biso   1.000  O
