data_image0
_cell_length_a       18.2115
_cell_length_b       18.2115
_cell_length_c       18.2115
_cell_angle_alpha    60
_cell_angle_beta     60
_cell_angle_gamma    60

_symmetry_space_group_name_H-M    "P 1"
_symmetry_int_tables_number       1

loop_
  _symmetry_equiv_pos_as_xyz
  'x, y, z'

loop_
  _atom_site_label
  _atom_site_occupancy
  _atom_site_fract_x
  _atom_site_fract_y
  _atom_site_fract_z
  _atom_site_thermal_displace_type
  _atom_site_B_iso_or_equiv
  _atom_site_type_symbol
  Zn1      1.0000 0.29361  0.29361  0.11917  Biso   1.000  Zn
  Zn2      1.0000 0.29361  0.29361  0.29361  Biso   1.000  Zn
  Zn3      1.0000 0.11917  0.29361  0.29361  Biso   1.000  Zn
  Zn4      1.0000 0.29361  0.11917  0.29361  Biso   1.000  Zn
  Zn5      1.0000 0.70639  0.70639  0.88083  Biso   1.000  Zn
  Zn6      1.0000 0.70639  0.70639  0.70639  Biso   1.000  Zn
  Zn7      1.0000 0.70639  0.88083  0.70639  Biso   1.000  Zn
  Zn8      1.0000 0.88083  0.70639  0.70639  Biso   1.000  Zn
  H1       1.0000 0.45530  0.45530  0.93770  Biso   1.000  H
  H2       1.0000 0.45530  0.45530  0.15170  Biso   1.000  H
  H3       1.0000 0.93770  0.15170  0.45530  Biso   1.000  H
  H4       1.0000 0.15170  0.93770  0.45530  Biso   1.000  H
  H5       1.0000 0.45530  0.93770  0.15170  Biso   1.000  H
  H6       1.0000 0.45530  0.15170  0.93770  Biso   1.000  H
  H7       1.0000 0.93770  0.45530  0.45530  Biso   1.000  H
  H8       1.0000 0.15170  0.45530  0.45530  Biso   1.000  H
  H9       1.0000 0.45530  0.15170  0.45530  Biso   1.000  H
  H10      1.0000 0.45530  0.93770  0.45530  Biso   1.000  H
  H11      1.0000 0.93770  0.45530  0.15170  Biso   1.000  H
  H12      1.0000 0.15170  0.45530  0.93770  Biso   1.000  H
  H13      1.0000 0.54470  0.54470  0.06230  Biso   1.000  H
  H14      1.0000 0.54470  0.54470  0.84830  Biso   1.000  H
  H15      1.0000 0.84830  0.06230  0.54470  Biso   1.000  H
  H16      1.0000 0.06230  0.84830  0.54470  Biso   1.000  H
  H17      1.0000 0.06230  0.54470  0.84830  Biso   1.000  H
  H18      1.0000 0.84830  0.54470  0.06230  Biso   1.000  H
  H19      1.0000 0.54470  0.06230  0.54470  Biso   1.000  H
  H20      1.0000 0.54470  0.84830  0.54470  Biso   1.000  H
  H21      1.0000 0.84830  0.54470  0.54470  Biso   1.000  H
  H22      1.0000 0.06230  0.54470  0.54470  Biso   1.000  H
  H23      1.0000 0.54470  0.06230  0.84830  Biso   1.000  H
  H24      1.0000 0.54470  0.84830  0.06230  Biso   1.000  H
  C1       1.0000 0.47300  0.47300  0.96450  Biso   1.000  C
  C2       1.0000 0.47300  0.47300  0.08950  Biso   1.000  C
  C3       1.0000 0.96450  0.08950  0.47300  Biso   1.000  C
  C4       1.0000 0.08950  0.96450  0.47300  Biso   1.000  C
  C5       1.0000 0.47300  0.96450  0.08950  Biso   1.000  C
  C6       1.0000 0.47300  0.08950  0.96450  Biso   1.000  C
  C7       1.0000 0.96450  0.47300  0.47300  Biso   1.000  C
  C8       1.0000 0.08950  0.47300  0.47300  Biso   1.000  C
  C9       1.0000 0.47300  0.08950  0.47300  Biso   1.000  C
  C10      1.0000 0.47300  0.96450  0.47300  Biso   1.000  C
  C11      1.0000 0.96450  0.47300  0.08950  Biso   1.000  C
  C12      1.0000 0.08950  0.47300  0.96450  Biso   1.000  C
  C13      1.0000 0.52700  0.52700  0.03550  Biso   1.000  C
  C14      1.0000 0.52700  0.52700  0.91050  Biso   1.000  C
  C15      1.0000 0.91050  0.03550  0.52700  Biso   1.000  C
  C16      1.0000 0.03550  0.91050  0.52700  Biso   1.000  C
  C17      1.0000 0.03550  0.52700  0.91050  Biso   1.000  C
  C18      1.0000 0.91050  0.52700  0.03550  Biso   1.000  C
  C19      1.0000 0.52700  0.03550  0.52700  Biso   1.000  C
  C20      1.0000 0.52700  0.91050  0.52700  Biso   1.000  C
  C21      1.0000 0.91050  0.52700  0.52700  Biso   1.000  C
  C22      1.0000 0.03550  0.52700  0.52700  Biso   1.000  C
  C23      1.0000 0.52700  0.03550  0.91050  Biso   1.000  C
  C24      1.0000 0.52700  0.91050  0.03550  Biso   1.000  C
  C25      1.0000 0.38860  0.38860  0.11140  Biso   1.000  C
  C26      1.0000 0.44600  0.44600  0.05400  Biso   1.000  C
  C27      1.0000 0.11140  0.11140  0.38860  Biso   1.000  C
  C28      1.0000 0.05400  0.05400  0.44600  Biso   1.000  C
  C29      1.0000 0.38860  0.11140  0.11140  Biso   1.000  C
  C30      1.0000 0.44600  0.05400  0.05400  Biso   1.000  C
  C31      1.0000 0.11140  0.38860  0.38860  Biso   1.000  C
  C32      1.0000 0.05400  0.44600  0.44600  Biso   1.000  C
  C33      1.0000 0.38860  0.11140  0.38860  Biso   1.000  C
  C34      1.0000 0.44600  0.05400  0.44600  Biso   1.000  C
  C35      1.0000 0.11140  0.38860  0.11140  Biso   1.000  C
  C36      1.0000 0.05400  0.44600  0.05400  Biso   1.000  C
  C37      1.0000 0.61140  0.61140  0.88860  Biso   1.000  C
  C38      1.0000 0.55400  0.55400  0.94600  Biso   1.000  C
  C39      1.0000 0.88860  0.88860  0.61140  Biso   1.000  C
  C40      1.0000 0.94600  0.94600  0.55400  Biso   1.000  C
  C41      1.0000 0.88860  0.61140  0.88860  Biso   1.000  C
  C42      1.0000 0.94600  0.55400  0.94600  Biso   1.000  C
  C43      1.0000 0.61140  0.88860  0.61140  Biso   1.000  C
  C44      1.0000 0.55400  0.94600  0.55400  Biso   1.000  C
  C45      1.0000 0.88860  0.61140  0.61140  Biso   1.000  C
  C46      1.0000 0.94600  0.55400  0.55400  Biso   1.000  C
  C47      1.0000 0.61140  0.88860  0.88860  Biso   1.000  C
  C48      1.0000 0.55400  0.94600  0.94600  Biso   1.000  C
  O1       1.0000 0.25000  0.25000  0.25000  Biso   1.000  O
  O2       1.0000 0.75000  0.75000  0.75000  Biso   1.000  O
  O3       1.0000 0.36611  0.36611  0.07317  Biso   1.000  O
  O4       1.0000 0.36611  0.36611  0.19461  Biso   1.000  O
  O5       1.0000 0.07317  0.19461  0.36611  Biso   1.000  O
  O6       1.0000 0.19461  0.07317  0.36611  Biso   1.000  O
  O7       1.0000 0.36611  0.07317  0.19461  Biso   1.000  O
  O8       1.0000 0.36611  0.19461  0.07317  Biso   1.000  O
  O9       1.0000 0.07317  0.36611  0.36611  Biso   1.000  O
  O10      1.0000 0.19461  0.36611  0.36611  Biso   1.000  O
  O11      1.0000 0.36611  0.19461  0.36611  Biso   1.000  O
  O12      1.0000 0.36611  0.07317  0.36611  Biso   1.000  O
  O13      1.0000 0.07317  0.36611  0.19461  Biso   1.000  O
  O14      1.0000 0.19461  0.36611  0.07317  Biso   1.000  O
  O15      1.0000 0.63389  0.63389  0.92683  Biso   1.000  O
  O16      1.0000 0.63389  0.63389  0.80539  Biso   1.000  O
  O17      1.0000 0.80539  0.92683  0.63389  Biso   1.000  O
  O18      1.0000 0.92683  0.80539  0.63389  Biso   1.000  O
  O19      1.0000 0.92683  0.63389  0.80539  Biso   1.000  O
  O20      1.0000 0.80539  0.63389  0.92683  Biso   1.000  O
  O21      1.0000 0.63389  0.92683  0.63389  Biso   1.000  O
  O22      1.0000 0.63389  0.80539  0.63389  Biso   1.000  O
  O23      1.0000 0.80539  0.63389  0.63389  Biso   1.000  O
  O24      1.0000 0.92683  0.63389  0.63389  Biso   1.000  O
  O25      1.0000 0.63389  0.92683  0.80539  Biso   1.000  O
  O26      1.0000 0.63389  0.80539  0.92683  Biso   1.000  O
  Zn9      1.0000 0.89732  0.75614  0.43410  Biso   1.000  Zn
  Zn10     1.0000 0.07261  0.75614  0.25881  Biso   1.000  Zn
  Zn11     1.0000 0.89732  0.75614  0.25881  Biso   1.000  Zn
  Zn12     1.0000 0.89732  0.93143  0.25881  Biso   1.000  Zn
  Zn13     1.0000 0.49728  0.33968  0.66706  Biso   1.000  Zn
  Zn14     1.0000 0.32199  0.33968  0.84235  Biso   1.000  Zn
  Zn15     1.0000 0.49728  0.16439  0.84235  Biso   1.000  Zn
  Zn16     1.0000 0.49728  0.33968  0.84235  Biso   1.000  Zn
  H25      1.0000 0.04533  0.59328  0.61181  Biso   1.000  H
  H26      1.0000 0.25853  0.59328  0.39861  Biso   1.000  H
  H27      1.0000 0.74267  0.89594  0.09595  Biso   1.000  H
  H28      1.0000 0.74267  0.10914  0.09595  Biso   1.000  H
  H29      1.0000 0.74267  0.10914  0.39861  Biso   1.000  H
  H30      1.0000 0.74267  0.89594  0.61181  Biso   1.000  H
  H31      1.0000 0.04533  0.59328  0.09595  Biso   1.000  H
  H32      1.0000 0.25853  0.59328  0.09595  Biso   1.000  H
  H33      1.0000 0.25853  0.89594  0.09595  Biso   1.000  H
  H34      1.0000 0.04533  0.10914  0.09595  Biso   1.000  H
  H35      1.0000 0.74267  0.59328  0.39861  Biso   1.000  H
  H36      1.0000 0.74267  0.59328  0.61181  Biso   1.000  H
  H37      1.0000 0.34927  0.50254  0.48935  Biso   1.000  H
  H38      1.0000 0.13607  0.50254  0.70255  Biso   1.000  H
  H39      1.0000 0.65193  0.98668  0.00521  Biso   1.000  H
  H40      1.0000 0.65193  0.19988  0.00521  Biso   1.000  H
  H41      1.0000 0.65193  0.50254  0.70255  Biso   1.000  H
  H42      1.0000 0.65193  0.50254  0.48935  Biso   1.000  H
  H43      1.0000 0.34927  0.98668  0.00521  Biso   1.000  H
  H44      1.0000 0.13607  0.19988  0.00521  Biso   1.000  H
  H45      1.0000 0.13607  0.50254  0.00521  Biso   1.000  H
  H46      1.0000 0.34927  0.50254  0.00521  Biso   1.000  H
  H47      1.0000 0.65193  0.98668  0.70255  Biso   1.000  H
  H48      1.0000 0.65193  0.19988  0.48935  Biso   1.000  H
  C49      1.0000 0.10921  0.57491  0.58467  Biso   1.000  C
  C50      1.0000 0.23139  0.57491  0.46249  Biso   1.000  C
  C51      1.0000 0.72430  0.95982  0.07758  Biso   1.000  C
  C52      1.0000 0.72430  0.08200  0.07758  Biso   1.000  C
  C53      1.0000 0.72430  0.08200  0.46249  Biso   1.000  C
  C54      1.0000 0.72430  0.95982  0.58467  Biso   1.000  C
  C55      1.0000 0.10921  0.57491  0.07758  Biso   1.000  C
  C56      1.0000 0.23139  0.57491  0.07758  Biso   1.000  C
  C57      1.0000 0.23139  0.95982  0.07758  Biso   1.000  C
  C58      1.0000 0.10921  0.08200  0.07758  Biso   1.000  C
  C59      1.0000 0.72430  0.57491  0.46249  Biso   1.000  C
  C60      1.0000 0.72430  0.57491  0.58467  Biso   1.000  C
  C61      1.0000 0.28539  0.52091  0.51649  Biso   1.000  C
  C62      1.0000 0.16321  0.52091  0.63867  Biso   1.000  C
  C63      1.0000 0.67030  0.01382  0.02358  Biso   1.000  C
  C64      1.0000 0.67030  0.13600  0.02358  Biso   1.000  C
  C65      1.0000 0.67030  0.52091  0.63867  Biso   1.000  C
  C66      1.0000 0.67030  0.52091  0.51649  Biso   1.000  C
  C67      1.0000 0.28539  0.01382  0.02358  Biso   1.000  C
  C68      1.0000 0.16321  0.13600  0.02358  Biso   1.000  C
  C69      1.0000 0.16321  0.52091  0.02358  Biso   1.000  C
  C70      1.0000 0.28539  0.52091  0.02358  Biso   1.000  C
  C71      1.0000 0.67030  0.01382  0.63867  Biso   1.000  C
  C72      1.0000 0.67030  0.13600  0.51649  Biso   1.000  C
  C73      1.0000 0.08068  0.66043  0.44217  Biso   1.000  C
  C74      1.0000 0.13915  0.60196  0.50063  Biso   1.000  C
  C75      1.0000 0.80161  0.93950  0.16310  Biso   1.000  C
  C76      1.0000 0.74314  0.99796  0.10463  Biso   1.000  C
  C77      1.0000 0.80161  0.93950  0.44217  Biso   1.000  C
  C78      1.0000 0.74314  0.99796  0.50063  Biso   1.000  C
  C79      1.0000 0.08068  0.66043  0.16310  Biso   1.000  C
  C80      1.0000 0.13915  0.60196  0.10463  Biso   1.000  C
  C81      1.0000 0.08068  0.93950  0.16310  Biso   1.000  C
  C82      1.0000 0.13915  0.99796  0.10463  Biso   1.000  C
  C83      1.0000 0.80161  0.66043  0.44217  Biso   1.000  C
  C84      1.0000 0.74314  0.60196  0.50063  Biso   1.000  C
  C85      1.0000 0.31392  0.43539  0.65899  Biso   1.000  C
  C86      1.0000 0.25545  0.49386  0.60053  Biso   1.000  C
  C87      1.0000 0.59299  0.15632  0.93806  Biso   1.000  C
  C88      1.0000 0.65146  0.09786  0.99653  Biso   1.000  C
  C89      1.0000 0.59299  0.43539  0.65899  Biso   1.000  C
  C90      1.0000 0.65146  0.49386  0.60053  Biso   1.000  C
  C91      1.0000 0.31392  0.15632  0.93806  Biso   1.000  C
  C92      1.0000 0.25545  0.09786  0.99653  Biso   1.000  C
  C93      1.0000 0.31392  0.43539  0.93806  Biso   1.000  C
  C94      1.0000 0.25545  0.49386  0.99653  Biso   1.000  C
  C95      1.0000 0.59299  0.15632  0.65899  Biso   1.000  C
  C96      1.0000 0.65146  0.09786  0.60053  Biso   1.000  C
  O27      1.0000 0.94114  0.79996  0.30263  Biso   1.000  O
  O28      1.0000 0.45346  0.29586  0.79853  Biso   1.000  O
  O29      1.0000 0.99682  0.68289  0.48111  Biso   1.000  O
  O30      1.0000 0.11962  0.68289  0.35831  Biso   1.000  O
  O31      1.0000 0.82407  0.85564  0.18556  Biso   1.000  O
  O32      1.0000 0.82407  0.97844  0.18556  Biso   1.000  O
  O33      1.0000 0.82407  0.97844  0.35831  Biso   1.000  O
  O34      1.0000 0.82407  0.85564  0.48111  Biso   1.000  O
  O35      1.0000 0.99682  0.68289  0.18556  Biso   1.000  O
  O36      1.0000 0.11962  0.68289  0.18556  Biso   1.000  O
  O37      1.0000 0.11962  0.85564  0.18556  Biso   1.000  O
  O38      1.0000 0.99682  0.97844  0.18556  Biso   1.000  O
  O39      1.0000 0.82407  0.68289  0.35831  Biso   1.000  O
  O40      1.0000 0.82407  0.68289  0.48111  Biso   1.000  O
  O41      1.0000 0.39778  0.41293  0.62005  Biso   1.000  O
  O42      1.0000 0.27498  0.41293  0.74285  Biso   1.000  O
  O43      1.0000 0.57053  0.11738  0.91560  Biso   1.000  O
  O44      1.0000 0.57053  0.24018  0.91560  Biso   1.000  O
  O45      1.0000 0.57053  0.41293  0.74285  Biso   1.000  O
  O46      1.0000 0.57053  0.41293  0.62005  Biso   1.000  O
  O47      1.0000 0.39778  0.11738  0.91560  Biso   1.000  O
  O48      1.0000 0.27498  0.24018  0.91560  Biso   1.000  O
  O49      1.0000 0.27498  0.41293  0.91560  Biso   1.000  O
  O50      1.0000 0.39778  0.41293  0.91560  Biso   1.000  O
  O51      1.0000 0.57053  0.11738  0.74285  Biso   1.000  O
  O52      1.0000 0.57053  0.24018  0.62005  Biso   1.000  O
