data_image0
_cell_length_a       18.228
_cell_length_b       18.228
_cell_length_c       18.228
_cell_angle_alpha    60
_cell_angle_beta     60
_cell_angle_gamma    60

_symmetry_space_group_name_H-M    "P 1"
_symmetry_int_tables_number       1

loop_
  _symmetry_equiv_pos_as_xyz
  'x, y, z'

loop_
  _atom_site_label
  _atom_site_occupancy
  _atom_site_fract_x
  _atom_site_fract_y
  _atom_site_fract_z
  _atom_site_thermal_displace_type
  _atom_site_B_iso_or_equiv
  _atom_site_type_symbol
  Zn1      1.0000 0.29358  0.29359  0.11924  Biso   1.000  Zn
  Zn2      1.0000 0.29358  0.29359  0.29359  Biso   1.000  Zn
  Zn3      1.0000 0.11923  0.29359  0.29359  Biso   1.000  Zn
  Zn4      1.0000 0.29358  0.11924  0.29359  Biso   1.000  Zn
  Zn5      1.0000 0.70642  0.70641  0.88076  Biso   1.000  Zn
  Zn6      1.0000 0.70642  0.70641  0.70641  Biso   1.000  Zn
  Zn7      1.0000 0.70642  0.88076  0.70641  Biso   1.000  Zn
  Zn8      1.0000 0.88077  0.70641  0.70641  Biso   1.000  Zn
  H1       1.0000 0.45570  0.45570  0.93670  Biso   1.000  H
  H2       1.0000 0.45570  0.45570  0.15190  Biso   1.000  H
  H3       1.0000 0.93670  0.15190  0.45570  Biso   1.000  H
  H4       1.0000 0.15190  0.93670  0.45570  Biso   1.000  H
  H5       1.0000 0.45570  0.93670  0.15190  Biso   1.000  H
  H6       1.0000 0.45570  0.15190  0.93670  Biso   1.000  H
  H7       1.0000 0.93670  0.45570  0.45570  Biso   1.000  H
  H8       1.0000 0.15190  0.45570  0.45570  Biso   1.000  H
  H9       1.0000 0.45570  0.15190  0.45570  Biso   1.000  H
  H10      1.0000 0.45570  0.93670  0.45570  Biso   1.000  H
  H11      1.0000 0.93670  0.45570  0.15190  Biso   1.000  H
  H12      1.0000 0.15190  0.45570  0.93670  Biso   1.000  H
  H13      1.0000 0.54430  0.54430  0.06330  Biso   1.000  H
  H14      1.0000 0.54430  0.54430  0.84810  Biso   1.000  H
  H15      1.0000 0.84810  0.06330  0.54430  Biso   1.000  H
  H16      1.0000 0.06330  0.84810  0.54430  Biso   1.000  H
  H17      1.0000 0.06330  0.54430  0.84810  Biso   1.000  H
  H18      1.0000 0.84810  0.54430  0.06330  Biso   1.000  H
  H19      1.0000 0.54430  0.06330  0.54430  Biso   1.000  H
  H20      1.0000 0.54430  0.84810  0.54430  Biso   1.000  H
  H21      1.0000 0.84810  0.54430  0.54430  Biso   1.000  H
  H22      1.0000 0.06330  0.54430  0.54430  Biso   1.000  H
  H23      1.0000 0.54430  0.06330  0.84810  Biso   1.000  H
  H24      1.0000 0.54430  0.84810  0.06330  Biso   1.000  H
  C1       1.0000 0.47340  0.47340  0.96356  Biso   1.000  C
  C2       1.0000 0.47340  0.47340  0.08964  Biso   1.000  C
  C3       1.0000 0.96356  0.08964  0.47340  Biso   1.000  C
  C4       1.0000 0.08964  0.96356  0.47340  Biso   1.000  C
  C5       1.0000 0.47340  0.96356  0.08964  Biso   1.000  C
  C6       1.0000 0.47340  0.08964  0.96356  Biso   1.000  C
  C7       1.0000 0.96356  0.47340  0.47340  Biso   1.000  C
  C8       1.0000 0.08964  0.47340  0.47340  Biso   1.000  C
  C9       1.0000 0.47340  0.08964  0.47340  Biso   1.000  C
  C10      1.0000 0.47340  0.96356  0.47340  Biso   1.000  C
  C11      1.0000 0.96356  0.47340  0.08964  Biso   1.000  C
  C12      1.0000 0.08964  0.47340  0.96356  Biso   1.000  C
  C13      1.0000 0.52660  0.52660  0.03644  Biso   1.000  C
  C14      1.0000 0.52660  0.52660  0.91036  Biso   1.000  C
  C15      1.0000 0.91036  0.03644  0.52660  Biso   1.000  C
  C16      1.0000 0.03644  0.91036  0.52660  Biso   1.000  C
  C17      1.0000 0.03644  0.52660  0.91036  Biso   1.000  C
  C18      1.0000 0.91036  0.52660  0.03644  Biso   1.000  C
  C19      1.0000 0.52660  0.03644  0.52660  Biso   1.000  C
  C20      1.0000 0.52660  0.91036  0.52660  Biso   1.000  C
  C21      1.0000 0.91036  0.52660  0.52660  Biso   1.000  C
  C22      1.0000 0.03644  0.52660  0.52660  Biso   1.000  C
  C23      1.0000 0.52660  0.03644  0.91036  Biso   1.000  C
  C24      1.0000 0.52660  0.91036  0.03644  Biso   1.000  C
  C25      1.0000 0.38850  0.38850  0.11150  Biso   1.000  C
  C26      1.0000 0.44610  0.44610  0.05390  Biso   1.000  C
  C27      1.0000 0.11150  0.11150  0.38850  Biso   1.000  C
  C28      1.0000 0.05390  0.05390  0.44610  Biso   1.000  C
  C29      1.0000 0.38850  0.11150  0.11150  Biso   1.000  C
  C30      1.0000 0.44610  0.05390  0.05390  Biso   1.000  C
  C31      1.0000 0.11150  0.38850  0.38850  Biso   1.000  C
  C32      1.0000 0.05390  0.44610  0.44610  Biso   1.000  C
  C33      1.0000 0.38850  0.11150  0.38850  Biso   1.000  C
  C34      1.0000 0.44610  0.05390  0.44610  Biso   1.000  C
  C35      1.0000 0.11150  0.38850  0.11150  Biso   1.000  C
  C36      1.0000 0.05390  0.44610  0.05390  Biso   1.000  C
  C37      1.0000 0.61150  0.61150  0.88850  Biso   1.000  C
  C38      1.0000 0.55390  0.55390  0.94610  Biso   1.000  C
  C39      1.0000 0.88850  0.88850  0.61150  Biso   1.000  C
  C40      1.0000 0.94610  0.94610  0.55390  Biso   1.000  C
  C41      1.0000 0.88850  0.61150  0.88850  Biso   1.000  C
  C42      1.0000 0.94610  0.55390  0.94610  Biso   1.000  C
  C43      1.0000 0.61150  0.88850  0.61150  Biso   1.000  C
  C44      1.0000 0.55390  0.94610  0.55390  Biso   1.000  C
  C45      1.0000 0.88850  0.61150  0.61150  Biso   1.000  C
  C46      1.0000 0.94610  0.55390  0.55390  Biso   1.000  C
  C47      1.0000 0.61150  0.88850  0.88850  Biso   1.000  C
  C48      1.0000 0.55390  0.94610  0.94610  Biso   1.000  C
  O1       1.0000 0.25000  0.25000  0.25000  Biso   1.000  O
  O2       1.0000 0.75000  0.75000  0.75000  Biso   1.000  O
  O3       1.0000 0.36610  0.36610  0.07322  Biso   1.000  O
  O4       1.0000 0.36610  0.36610  0.19458  Biso   1.000  O
  O5       1.0000 0.07322  0.19458  0.36610  Biso   1.000  O
  O6       1.0000 0.19458  0.07322  0.36610  Biso   1.000  O
  O7       1.0000 0.36610  0.07322  0.19458  Biso   1.000  O
  O8       1.0000 0.36610  0.19458  0.07322  Biso   1.000  O
  O9       1.0000 0.07322  0.36610  0.36610  Biso   1.000  O
  O10      1.0000 0.19458  0.36610  0.36610  Biso   1.000  O
  O11      1.0000 0.36610  0.19458  0.36610  Biso   1.000  O
  O12      1.0000 0.36610  0.07322  0.36610  Biso   1.000  O
  O13      1.0000 0.07322  0.36610  0.19458  Biso   1.000  O
  O14      1.0000 0.19458  0.36610  0.07322  Biso   1.000  O
  O15      1.0000 0.63390  0.63390  0.92678  Biso   1.000  O
  O16      1.0000 0.63390  0.63390  0.80542  Biso   1.000  O
  O17      1.0000 0.80542  0.92678  0.63390  Biso   1.000  O
  O18      1.0000 0.92678  0.80542  0.63390  Biso   1.000  O
  O19      1.0000 0.92678  0.63390  0.80542  Biso   1.000  O
  O20      1.0000 0.80542  0.63390  0.92678  Biso   1.000  O
  O21      1.0000 0.63390  0.92678  0.63390  Biso   1.000  O
  O22      1.0000 0.63390  0.80542  0.63390  Biso   1.000  O
  O23      1.0000 0.80542  0.63390  0.63390  Biso   1.000  O
  O24      1.0000 0.92678  0.63390  0.63390  Biso   1.000  O
  O25      1.0000 0.63390  0.92678  0.80542  Biso   1.000  O
  O26      1.0000 0.63390  0.80542  0.92678  Biso   1.000  O
  Zn9      1.0000 0.16526  1.00000  1.00000  Biso   1.000  Zn
  Zn10     1.0000 0.16526  1.00000  0.82457  Biso   1.000  Zn
  Zn11     1.0000 0.16526  0.82457  1.00000  Biso   1.000  Zn
  Zn12     1.0000 0.98983  1.00000  1.00000  Biso   1.000  Zn
  Zn13     1.0000 0.58171  0.41642  0.41642  Biso   1.000  Zn
  Zn14     1.0000 0.58171  0.41642  0.59186  Biso   1.000  Zn
  Zn15     1.0000 0.75714  0.41642  0.41642  Biso   1.000  Zn
  Zn16     1.0000 0.58171  0.59186  0.41642  Biso   1.000  Zn
  H25      1.0000 0.32781  0.16254  0.86166  Biso   1.000  H
  H26      1.0000 0.32781  0.16254  0.64611  Biso   1.000  H
  H27      1.0000 0.02694  0.64611  0.16254  Biso   1.000  H
  H28      1.0000 0.81139  0.86166  0.16254  Biso   1.000  H
  H29      1.0000 0.32781  0.86166  0.64611  Biso   1.000  H
  H30      1.0000 0.32781  0.64611  0.86166  Biso   1.000  H
  H31      1.0000 0.02694  0.16254  0.16254  Biso   1.000  H
  H32      1.0000 0.81139  0.16254  0.16254  Biso   1.000  H
  H33      1.0000 0.32781  0.64611  0.16254  Biso   1.000  H
  H34      1.0000 0.32781  0.86166  0.16254  Biso   1.000  H
  H35      1.0000 0.02694  0.16254  0.64611  Biso   1.000  H
  H36      1.0000 0.81139  0.16254  0.86166  Biso   1.000  H
  H37      1.0000 0.41916  0.25389  0.55476  Biso   1.000  H
  H38      1.0000 0.41916  0.25389  0.77031  Biso   1.000  H
  H39      1.0000 0.93558  0.55476  0.25389  Biso   1.000  H
  H40      1.0000 0.72003  0.77031  0.25389  Biso   1.000  H
  H41      1.0000 0.72003  0.25389  0.77031  Biso   1.000  H
  H42      1.0000 0.93558  0.25389  0.55476  Biso   1.000  H
  H43      1.0000 0.41916  0.55476  0.25389  Biso   1.000  H
  H44      1.0000 0.41916  0.77031  0.25389  Biso   1.000  H
  H45      1.0000 0.93558  0.25389  0.25389  Biso   1.000  H
  H46      1.0000 0.72003  0.25389  0.25389  Biso   1.000  H
  H47      1.0000 0.41916  0.55476  0.77031  Biso   1.000  H
  H48      1.0000 0.41916  0.77031  0.55476  Biso   1.000  H
  C49      1.0000 0.34682  0.18154  0.79625  Biso   1.000  C
  C50      1.0000 0.34682  0.18154  0.67351  Biso   1.000  C
  C51      1.0000 0.96153  0.67351  0.18154  Biso   1.000  C
  C52      1.0000 0.83878  0.79625  0.18154  Biso   1.000  C
  C53      1.0000 0.34682  0.79625  0.67351  Biso   1.000  C
  C54      1.0000 0.34682  0.67351  0.79625  Biso   1.000  C
  C55      1.0000 0.96153  0.18154  0.18154  Biso   1.000  C
  C56      1.0000 0.83878  0.18154  0.18154  Biso   1.000  C
  C57      1.0000 0.34682  0.67351  0.18154  Biso   1.000  C
  C58      1.0000 0.34682  0.79625  0.18154  Biso   1.000  C
  C59      1.0000 0.96153  0.18154  0.67351  Biso   1.000  C
  C60      1.0000 0.83878  0.18154  0.79625  Biso   1.000  C
  C61      1.0000 0.40015  0.23488  0.62017  Biso   1.000  C
  C62      1.0000 0.40015  0.23488  0.74292  Biso   1.000  C
  C63      1.0000 0.90819  0.62017  0.23488  Biso   1.000  C
  C64      1.0000 0.78544  0.74292  0.23488  Biso   1.000  C
  C65      1.0000 0.78544  0.23488  0.74292  Biso   1.000  C
  C66      1.0000 0.90819  0.23488  0.62017  Biso   1.000  C
  C67      1.0000 0.40015  0.62017  0.23488  Biso   1.000  C
  C68      1.0000 0.40015  0.74292  0.23488  Biso   1.000  C
  C69      1.0000 0.90819  0.23488  0.23488  Biso   1.000  C
  C70      1.0000 0.78544  0.23488  0.23488  Biso   1.000  C
  C71      1.0000 0.40015  0.62017  0.74292  Biso   1.000  C
  C72      1.0000 0.40015  0.74292  0.62017  Biso   1.000  C
  C73      1.0000 0.26086  0.09559  0.81669  Biso   1.000  C
  C74      1.0000 0.31927  0.15400  0.75828  Biso   1.000  C
  C75      1.0000 0.98197  0.81669  0.09559  Biso   1.000  C
  C76      1.0000 0.92356  0.75828  0.15400  Biso   1.000  C
  C77      1.0000 0.26086  0.81669  0.81669  Biso   1.000  C
  C78      1.0000 0.31927  0.75828  0.75828  Biso   1.000  C
  C79      1.0000 0.98197  0.09559  0.09559  Biso   1.000  C
  C80      1.0000 0.92356  0.15400  0.15400  Biso   1.000  C
  C81      1.0000 0.26086  0.81669  0.09559  Biso   1.000  C
  C82      1.0000 0.31927  0.75828  0.15400  Biso   1.000  C
  C83      1.0000 0.98197  0.09559  0.81669  Biso   1.000  C
  C84      1.0000 0.92356  0.15400  0.75828  Biso   1.000  C
  C85      1.0000 0.48611  0.32084  0.59973  Biso   1.000  C
  C86      1.0000 0.42770  0.26243  0.65814  Biso   1.000  C
  C87      1.0000 0.76500  0.59973  0.32084  Biso   1.000  C
  C88      1.0000 0.82341  0.65814  0.26243  Biso   1.000  C
  C89      1.0000 0.76500  0.32084  0.59973  Biso   1.000  C
  C90      1.0000 0.82341  0.26243  0.65814  Biso   1.000  C
  C91      1.0000 0.48611  0.59973  0.32084  Biso   1.000  C
  C92      1.0000 0.42770  0.65814  0.26243  Biso   1.000  C
  C93      1.0000 0.76500  0.32084  0.32084  Biso   1.000  C
  C94      1.0000 0.82341  0.26243  0.26243  Biso   1.000  C
  C95      1.0000 0.48611  0.59973  0.59973  Biso   1.000  C
  C96      1.0000 0.42770  0.65814  0.65814  Biso   1.000  C
  O27      1.0000 0.23850  0.07323  0.90096  Biso   1.000  O
  O28      1.0000 0.23850  0.07323  0.77714  Biso   1.000  O
  O29      1.0000 0.06623  0.77714  0.07323  Biso   1.000  O
  O30      1.0000 0.94241  0.90096  0.07323  Biso   1.000  O
  O31      1.0000 0.23850  0.90096  0.77714  Biso   1.000  O
  O32      1.0000 0.23850  0.77714  0.90096  Biso   1.000  O
  O33      1.0000 0.06623  0.07323  0.07323  Biso   1.000  O
  O34      1.0000 0.94241  0.07323  0.07323  Biso   1.000  O
  O35      1.0000 0.23850  0.77714  0.07323  Biso   1.000  O
  O36      1.0000 0.23850  0.90096  0.07323  Biso   1.000  O
  O37      1.0000 0.06623  0.07323  0.77714  Biso   1.000  O
  O38      1.0000 0.94241  0.07323  0.90096  Biso   1.000  O
  O39      1.0000 0.50846  0.34319  0.51547  Biso   1.000  O
  O40      1.0000 0.50846  0.34319  0.63929  Biso   1.000  O
  O41      1.0000 0.80456  0.51547  0.34319  Biso   1.000  O
  O42      1.0000 0.68074  0.63929  0.34319  Biso   1.000  O
  O43      1.0000 0.68074  0.34319  0.63929  Biso   1.000  O
  O44      1.0000 0.80456  0.34319  0.51547  Biso   1.000  O
  O45      1.0000 0.50846  0.51547  0.34319  Biso   1.000  O
  O46      1.0000 0.50846  0.63929  0.34319  Biso   1.000  O
  O47      1.0000 0.80456  0.34319  0.34319  Biso   1.000  O
  O48      1.0000 0.68074  0.34319  0.34319  Biso   1.000  O
  O49      1.0000 0.50846  0.51547  0.63929  Biso   1.000  O
  O50      1.0000 0.50846  0.63929  0.51547  Biso   1.000  O
  O51      1.0000 0.12141  0.95614  0.95614  Biso   1.000  O
  O52      1.0000 0.62556  0.46028  0.46028  Biso   1.000  O
