data_image0
_cell_length_a       18.2422
_cell_length_b       18.2422
_cell_length_c       18.2422
_cell_angle_alpha    60
_cell_angle_beta     60
_cell_angle_gamma    60

_symmetry_space_group_name_H-M    "P 1"
_symmetry_int_tables_number       1

loop_
  _symmetry_equiv_pos_as_xyz
  'x, y, z'

loop_
  _atom_site_label
  _atom_site_occupancy
  _atom_site_fract_x
  _atom_site_fract_y
  _atom_site_fract_z
  _atom_site_thermal_displace_type
  _atom_site_B_iso_or_equiv
  _atom_site_type_symbol
  Zn1      1.0000 0.29356  0.29355  0.11934  Biso   1.000  Zn
  Zn2      1.0000 0.29356  0.29355  0.29355  Biso   1.000  Zn
  Zn3      1.0000 0.11935  0.29355  0.29355  Biso   1.000  Zn
  Zn4      1.0000 0.29356  0.11934  0.29355  Biso   1.000  Zn
  Zn5      1.0000 0.70644  0.70645  0.88066  Biso   1.000  Zn
  Zn6      1.0000 0.70644  0.70645  0.70645  Biso   1.000  Zn
  Zn7      1.0000 0.70644  0.88066  0.70645  Biso   1.000  Zn
  Zn8      1.0000 0.88065  0.70645  0.70645  Biso   1.000  Zn
  H1       1.0000 0.45610  0.45610  0.93590  Biso   1.000  H
  H2       1.0000 0.45610  0.45610  0.15190  Biso   1.000  H
  H3       1.0000 0.93590  0.15190  0.45610  Biso   1.000  H
  H4       1.0000 0.15190  0.93590  0.45610  Biso   1.000  H
  H5       1.0000 0.45610  0.93590  0.15190  Biso   1.000  H
  H6       1.0000 0.45610  0.15190  0.93590  Biso   1.000  H
  H7       1.0000 0.93590  0.45610  0.45610  Biso   1.000  H
  H8       1.0000 0.15190  0.45610  0.45610  Biso   1.000  H
  H9       1.0000 0.45610  0.15190  0.45610  Biso   1.000  H
  H10      1.0000 0.45610  0.93590  0.45610  Biso   1.000  H
  H11      1.0000 0.93590  0.45610  0.15190  Biso   1.000  H
  H12      1.0000 0.15190  0.45610  0.93590  Biso   1.000  H
  H13      1.0000 0.54390  0.54390  0.06410  Biso   1.000  H
  H14      1.0000 0.54390  0.54390  0.84810  Biso   1.000  H
  H15      1.0000 0.84810  0.06410  0.54390  Biso   1.000  H
  H16      1.0000 0.06410  0.84810  0.54390  Biso   1.000  H
  H17      1.0000 0.06410  0.54390  0.84810  Biso   1.000  H
  H18      1.0000 0.84810  0.54390  0.06410  Biso   1.000  H
  H19      1.0000 0.54390  0.06410  0.54390  Biso   1.000  H
  H20      1.0000 0.54390  0.84810  0.54390  Biso   1.000  H
  H21      1.0000 0.84810  0.54390  0.54390  Biso   1.000  H
  H22      1.0000 0.06410  0.54390  0.54390  Biso   1.000  H
  H23      1.0000 0.54390  0.06410  0.84810  Biso   1.000  H
  H24      1.0000 0.54390  0.84810  0.06410  Biso   1.000  H
  C1       1.0000 0.47369  0.47369  0.96285  Biso   1.000  C
  C2       1.0000 0.47369  0.47369  0.08977  Biso   1.000  C
  C3       1.0000 0.96285  0.08977  0.47369  Biso   1.000  C
  C4       1.0000 0.08977  0.96285  0.47369  Biso   1.000  C
  C5       1.0000 0.47369  0.96285  0.08977  Biso   1.000  C
  C6       1.0000 0.47369  0.08977  0.96285  Biso   1.000  C
  C7       1.0000 0.96285  0.47369  0.47369  Biso   1.000  C
  C8       1.0000 0.08977  0.47369  0.47369  Biso   1.000  C
  C9       1.0000 0.47369  0.08977  0.47369  Biso   1.000  C
  C10      1.0000 0.47369  0.96285  0.47369  Biso   1.000  C
  C11      1.0000 0.96285  0.47369  0.08977  Biso   1.000  C
  C12      1.0000 0.08977  0.47369  0.96285  Biso   1.000  C
  C13      1.0000 0.52631  0.52631  0.03715  Biso   1.000  C
  C14      1.0000 0.52631  0.52631  0.91023  Biso   1.000  C
  C15      1.0000 0.91023  0.03715  0.52631  Biso   1.000  C
  C16      1.0000 0.03715  0.91023  0.52631  Biso   1.000  C
  C17      1.0000 0.03715  0.52631  0.91023  Biso   1.000  C
  C18      1.0000 0.91023  0.52631  0.03715  Biso   1.000  C
  C19      1.0000 0.52631  0.03715  0.52631  Biso   1.000  C
  C20      1.0000 0.52631  0.91023  0.52631  Biso   1.000  C
  C21      1.0000 0.91023  0.52631  0.52631  Biso   1.000  C
  C22      1.0000 0.03715  0.52631  0.52631  Biso   1.000  C
  C23      1.0000 0.52631  0.03715  0.91023  Biso   1.000  C
  C24      1.0000 0.52631  0.91023  0.03715  Biso   1.000  C
  C25      1.0000 0.38870  0.38870  0.11130  Biso   1.000  C
  C26      1.0000 0.44610  0.44610  0.05390  Biso   1.000  C
  C27      1.0000 0.11130  0.11130  0.38870  Biso   1.000  C
  C28      1.0000 0.05390  0.05390  0.44610  Biso   1.000  C
  C29      1.0000 0.38870  0.11130  0.11130  Biso   1.000  C
  C30      1.0000 0.44610  0.05390  0.05390  Biso   1.000  C
  C31      1.0000 0.11130  0.38870  0.38870  Biso   1.000  C
  C32      1.0000 0.05390  0.44610  0.44610  Biso   1.000  C
  C33      1.0000 0.38870  0.11130  0.38870  Biso   1.000  C
  C34      1.0000 0.44610  0.05390  0.44610  Biso   1.000  C
  C35      1.0000 0.11130  0.38870  0.11130  Biso   1.000  C
  C36      1.0000 0.05390  0.44610  0.05390  Biso   1.000  C
  C37      1.0000 0.61130  0.61130  0.88870  Biso   1.000  C
  C38      1.0000 0.55390  0.55390  0.94610  Biso   1.000  C
  C39      1.0000 0.88870  0.88870  0.61130  Biso   1.000  C
  C40      1.0000 0.94610  0.94610  0.55390  Biso   1.000  C
  C41      1.0000 0.88870  0.61130  0.88870  Biso   1.000  C
  C42      1.0000 0.94610  0.55390  0.94610  Biso   1.000  C
  C43      1.0000 0.61130  0.88870  0.61130  Biso   1.000  C
  C44      1.0000 0.55390  0.94610  0.55390  Biso   1.000  C
  C45      1.0000 0.88870  0.61130  0.61130  Biso   1.000  C
  C46      1.0000 0.94610  0.55390  0.55390  Biso   1.000  C
  C47      1.0000 0.61130  0.88870  0.88870  Biso   1.000  C
  C48      1.0000 0.55390  0.94610  0.94610  Biso   1.000  C
  O1       1.0000 0.25000  0.25000  0.25000  Biso   1.000  O
  O2       1.0000 0.75000  0.75000  0.75000  Biso   1.000  O
  O3       1.0000 0.36609  0.36609  0.07323  Biso   1.000  O
  O4       1.0000 0.36609  0.36609  0.19459  Biso   1.000  O
  O5       1.0000 0.07323  0.19459  0.36609  Biso   1.000  O
  O6       1.0000 0.19459  0.07323  0.36609  Biso   1.000  O
  O7       1.0000 0.36609  0.07323  0.19459  Biso   1.000  O
  O8       1.0000 0.36609  0.19459  0.07323  Biso   1.000  O
  O9       1.0000 0.07323  0.36609  0.36609  Biso   1.000  O
  O10      1.0000 0.19459  0.36609  0.36609  Biso   1.000  O
  O11      1.0000 0.36609  0.19459  0.36609  Biso   1.000  O
  O12      1.0000 0.36609  0.07323  0.36609  Biso   1.000  O
  O13      1.0000 0.07323  0.36609  0.19459  Biso   1.000  O
  O14      1.0000 0.19459  0.36609  0.07323  Biso   1.000  O
  O15      1.0000 0.63391  0.63391  0.92677  Biso   1.000  O
  O16      1.0000 0.63391  0.63391  0.80541  Biso   1.000  O
  O17      1.0000 0.80541  0.92677  0.63391  Biso   1.000  O
  O18      1.0000 0.92677  0.80541  0.63391  Biso   1.000  O
  O19      1.0000 0.92677  0.63391  0.80541  Biso   1.000  O
  O20      1.0000 0.80541  0.63391  0.92677  Biso   1.000  O
  O21      1.0000 0.63391  0.92677  0.63391  Biso   1.000  O
  O22      1.0000 0.63391  0.80541  0.63391  Biso   1.000  O
  O23      1.0000 0.80541  0.63391  0.63391  Biso   1.000  O
  O24      1.0000 0.92677  0.63391  0.63391  Biso   1.000  O
  O25      1.0000 0.63391  0.92677  0.80541  Biso   1.000  O
  O26      1.0000 0.63391  0.80541  0.92677  Biso   1.000  O
  Zn9      1.0000 0.87005  0.68981  0.65407  Biso   1.000  Zn
  Zn10     1.0000 0.28202  0.27784  0.06599  Biso   1.000  Zn
  Zn11     1.0000 0.28202  0.10330  0.06599  Biso   1.000  Zn
  Zn12     1.0000 0.87005  0.51527  0.65407  Biso   1.000  Zn
  Zn13     1.0000 0.86979  0.69000  0.47937  Biso   1.000  Zn
  Zn14     1.0000 0.69517  0.68988  0.65428  Biso   1.000  Zn
  Zn15     1.0000 0.28228  0.10310  0.24069  Biso   1.000  Zn
  Zn16     1.0000 0.45690  0.10323  0.06578  Biso   1.000  Zn
  H25      1.0000 0.03080  0.33319  0.51251  Biso   1.000  H
  H26      1.0000 0.02648  0.54850  0.29836  Biso   1.000  H
  H27      1.0000 0.72962  0.33518  0.81537  Biso   1.000  H
  H28      1.0000 0.50929  0.54967  0.82068  Biso   1.000  H
  H29      1.0000 0.03252  0.54907  0.81357  Biso   1.000  H
  H30      1.0000 0.12127  0.94040  0.20755  Biso   1.000  H
  H31      1.0000 0.12559  0.93729  0.42170  Biso   1.000  H
  H32      1.0000 0.42246  0.94402  0.90469  Biso   1.000  H
  H33      1.0000 0.64278  0.94352  0.89939  Biso   1.000  H
  H34      1.0000 0.11955  0.45903  0.90649  Biso   1.000  H
  H35      1.0000 0.12127  0.45991  0.20755  Biso   1.000  H
  H36      1.0000 0.12559  0.24460  0.42170  Biso   1.000  H
  H37      1.0000 0.42245  0.45793  0.90469  Biso   1.000  H
  H38      1.0000 0.64278  0.24343  0.89939  Biso   1.000  H
  H39      1.0000 0.11956  0.24403  0.90649  Biso   1.000  H
  H40      1.0000 0.03080  0.85270  0.51251  Biso   1.000  H
  H41      1.0000 0.02648  0.85581  0.29836  Biso   1.000  H
  H42      1.0000 0.72962  0.84908  0.81537  Biso   1.000  H
  H43      1.0000 0.50929  0.84958  0.82068  Biso   1.000  H
  H44      1.0000 0.03252  0.33407  0.81357  Biso   1.000  H
  H45      1.0000 0.51318  0.85140  0.51321  Biso   1.000  H
  H46      1.0000 0.72648  0.85411  0.29445  Biso   1.000  H
  H47      1.0000 0.63889  0.94171  0.20685  Biso   1.000  H
  H48      1.0000 0.42559  0.93899  0.42561  Biso   1.000  H
  C49      1.0000 0.96523  0.50555  0.47377  Biso   1.000  C
  C50      1.0000 0.02388  0.44849  0.41329  Biso   1.000  C
  C51      1.0000 0.04972  0.35972  0.45014  Biso   1.000  C
  C52      1.0000 0.04750  0.48623  0.32399  Biso   1.000  C
  C53      1.0000 0.68756  0.50673  0.75069  Biso   1.000  C
  C54      1.0000 0.63041  0.45097  0.80766  Biso   1.000  C
  C55      1.0000 0.66746  0.36090  0.83289  Biso   1.000  C
  C56      1.0000 0.53692  0.48761  0.83629  Biso   1.000  C
  C57      1.0000 0.04883  0.48691  0.83309  Biso   1.000  C
  C58      1.0000 0.18684  0.00847  0.24630  Biso   1.000  C
  C59      1.0000 0.12819  0.94961  0.30677  Biso   1.000  C
  C60      1.0000 0.10236  0.92348  0.26992  Biso   1.000  C
  C61      1.0000 0.10457  0.92168  0.39607  Biso   1.000  C
  C62      1.0000 0.46451  0.00889  0.96937  Biso   1.000  C
  C63      1.0000 0.52166  0.95293  0.91240  Biso   1.000  C
  C64      1.0000 0.48462  0.92511  0.88717  Biso   1.000  C
  C65      1.0000 0.61515  0.92471  0.88377  Biso   1.000  C
  C66      1.0000 0.10324  0.43270  0.88697  Biso   1.000  C
  C67      1.0000 0.18685  0.28756  0.24630  Biso   1.000  C
  C68      1.0000 0.12819  0.34461  0.30677  Biso   1.000  C
  C69      1.0000 0.10235  0.43338  0.26992  Biso   1.000  C
  C70      1.0000 0.10457  0.30687  0.39607  Biso   1.000  C
  C71      1.0000 0.46451  0.28637  0.96937  Biso   1.000  C
  C72      1.0000 0.52166  0.34213  0.91240  Biso   1.000  C
  C73      1.0000 0.48462  0.43220  0.88717  Biso   1.000  C
  C74      1.0000 0.61515  0.30549  0.88377  Biso   1.000  C
  C75      1.0000 0.10324  0.30619  0.88697  Biso   1.000  C
  C76      1.0000 0.96523  0.78463  0.47377  Biso   1.000  C
  C77      1.0000 0.02388  0.84350  0.41329  Biso   1.000  C
  C78      1.0000 0.04972  0.86962  0.45014  Biso   1.000  C
  C79      1.0000 0.04750  0.87143  0.32399  Biso   1.000  C
  C80      1.0000 0.68757  0.78422  0.75069  Biso   1.000  C
  C81      1.0000 0.63041  0.84017  0.80766  Biso   1.000  C
  C82      1.0000 0.66745  0.86800  0.83289  Biso   1.000  C
  C83      1.0000 0.53692  0.86840  0.83629  Biso   1.000  C
  C84      1.0000 0.04884  0.36040  0.83309  Biso   1.000  C
  C85      1.0000 0.68935  0.78633  0.46716  Biso   1.000  C
  C86      1.0000 0.63009  0.84249  0.41410  Biso   1.000  C
  C87      1.0000 0.53980  0.86912  0.45114  Biso   1.000  C
  C88      1.0000 0.66412  0.87153  0.32199  Biso   1.000  C
  C89      1.0000 0.96444  0.50964  0.74549  Biso   1.000  C
  C90      1.0000 0.02290  0.44937  0.80756  Biso   1.000  C
  C91      1.0000 0.46272  0.00677  0.25290  Biso   1.000  C
  C92      1.0000 0.52198  0.95061  0.30597  Biso   1.000  C
  C93      1.0000 0.61227  0.92398  0.26892  Biso   1.000  C
  C94      1.0000 0.48795  0.92158  0.39808  Biso   1.000  C
  C95      1.0000 0.18763  0.28347  0.97458  Biso   1.000  C
  C96      1.0000 0.12917  0.34373  0.91250  Biso   1.000  C
  O27      1.0000 0.94310  0.59134  0.43021  Biso   1.000  O
  O28      1.0000 0.94551  0.46500  0.55656  Biso   1.000  O
  O29      1.0000 0.64662  0.59242  0.72536  Biso   1.000  O
  O30      1.0000 0.77195  0.46649  0.72817  Biso   1.000  O
  O31      1.0000 0.94342  0.59272  0.72586  Biso   1.000  O
  O32      1.0000 0.20897  0.02859  0.28985  Biso   1.000  O
  O33      1.0000 0.20656  0.03100  0.16350  Biso   1.000  O
  O34      1.0000 0.50545  0.02831  0.99470  Biso   1.000  O
  O35      1.0000 0.38012  0.03051  0.99190  Biso   1.000  O
  O36      1.0000 0.20865  0.32591  0.99420  Biso   1.000  O
  O37      1.0000 0.20897  0.20177  0.28985  Biso   1.000  O
  O38      1.0000 0.20656  0.32810  0.16350  Biso   1.000  O
  O39      1.0000 0.50545  0.20068  0.99470  Biso   1.000  O
  O40      1.0000 0.38013  0.32661  0.99190  Biso   1.000  O
  O41      1.0000 0.20865  0.20038  0.99420  Biso   1.000  O
  O42      1.0000 0.94310  0.76451  0.43021  Biso   1.000  O
  O43      1.0000 0.94551  0.76210  0.55656  Biso   1.000  O
  O44      1.0000 0.64662  0.76480  0.72536  Biso   1.000  O
  O45      1.0000 0.77195  0.76260  0.72817  Biso   1.000  O
  O46      1.0000 0.94342  0.46719  0.72586  Biso   1.000  O
  O47      1.0000 0.82630  0.64638  0.61013  Biso   1.000  O
  O48      1.0000 0.77173  0.76311  0.43122  Biso   1.000  O
  O49      1.0000 0.64792  0.76471  0.55186  Biso   1.000  O
  O50      1.0000 0.32578  0.14672  0.10994  Biso   1.000  O
  O51      1.0000 0.38034  0.02999  0.28885  Biso   1.000  O
  O52      1.0000 0.50416  0.02840  0.16820  Biso   1.000  O
