data_image0
_cell_length_a       18.3083
_cell_length_b       18.3083
_cell_length_c       18.3083
_cell_angle_alpha    60
_cell_angle_beta     60
_cell_angle_gamma    60

_symmetry_space_group_name_H-M    "P 1"
_symmetry_int_tables_number       1

loop_
  _symmetry_equiv_pos_as_xyz
  'x, y, z'

loop_
  _atom_site_label
  _atom_site_occupancy
  _atom_site_fract_x
  _atom_site_fract_y
  _atom_site_fract_z
  _atom_site_thermal_displace_type
  _atom_site_B_iso_or_equiv
  _atom_site_type_symbol
  Zn1      1.0000 0.29342  0.29341  0.11976  Biso   1.000  Zn
  Zn2      1.0000 0.29342  0.29341  0.29341  Biso   1.000  Zn
  Zn3      1.0000 0.11977  0.29341  0.29341  Biso   1.000  Zn
  Zn4      1.0000 0.29342  0.11976  0.29341  Biso   1.000  Zn
  Zn5      1.0000 0.70658  0.70659  0.88024  Biso   1.000  Zn
  Zn6      1.0000 0.70658  0.70659  0.70659  Biso   1.000  Zn
  Zn7      1.0000 0.70658  0.88024  0.70659  Biso   1.000  Zn
  Zn8      1.0000 0.88023  0.70659  0.70659  Biso   1.000  Zn
  H1       1.0000 0.45480  0.45480  0.93480  Biso   1.000  H
  H2       1.0000 0.45480  0.45480  0.15560  Biso   1.000  H
  H3       1.0000 0.93480  0.15560  0.45480  Biso   1.000  H
  H4       1.0000 0.15560  0.93480  0.45480  Biso   1.000  H
  H5       1.0000 0.45480  0.93480  0.15560  Biso   1.000  H
  H6       1.0000 0.45480  0.15560  0.93480  Biso   1.000  H
  H7       1.0000 0.93480  0.45480  0.45480  Biso   1.000  H
  H8       1.0000 0.15560  0.45480  0.45480  Biso   1.000  H
  H9       1.0000 0.45480  0.15560  0.45480  Biso   1.000  H
  H10      1.0000 0.45480  0.93480  0.45480  Biso   1.000  H
  H11      1.0000 0.93480  0.45480  0.15560  Biso   1.000  H
  H12      1.0000 0.15560  0.45480  0.93480  Biso   1.000  H
  H13      1.0000 0.54520  0.54520  0.06520  Biso   1.000  H
  H14      1.0000 0.54520  0.54520  0.84440  Biso   1.000  H
  H15      1.0000 0.84440  0.06520  0.54520  Biso   1.000  H
  H16      1.0000 0.06520  0.84440  0.54520  Biso   1.000  H
  H17      1.0000 0.06520  0.54520  0.84440  Biso   1.000  H
  H18      1.0000 0.84440  0.54520  0.06520  Biso   1.000  H
  H19      1.0000 0.54520  0.06520  0.54520  Biso   1.000  H
  H20      1.0000 0.54520  0.84440  0.54520  Biso   1.000  H
  H21      1.0000 0.84440  0.54520  0.54520  Biso   1.000  H
  H22      1.0000 0.06520  0.54520  0.54520  Biso   1.000  H
  H23      1.0000 0.54520  0.06520  0.84440  Biso   1.000  H
  H24      1.0000 0.54520  0.84440  0.06520  Biso   1.000  H
  C1       1.0000 0.47317  0.47317  0.96131  Biso   1.000  C
  C2       1.0000 0.47317  0.47317  0.09235  Biso   1.000  C
  C3       1.0000 0.96131  0.09235  0.47317  Biso   1.000  C
  C4       1.0000 0.09235  0.96131  0.47317  Biso   1.000  C
  C5       1.0000 0.47317  0.96131  0.09235  Biso   1.000  C
  C6       1.0000 0.47317  0.09235  0.96131  Biso   1.000  C
  C7       1.0000 0.96131  0.47317  0.47317  Biso   1.000  C
  C8       1.0000 0.09235  0.47317  0.47317  Biso   1.000  C
  C9       1.0000 0.47317  0.09235  0.47317  Biso   1.000  C
  C10      1.0000 0.47317  0.96131  0.47317  Biso   1.000  C
  C11      1.0000 0.96131  0.47317  0.09235  Biso   1.000  C
  C12      1.0000 0.09235  0.47317  0.96131  Biso   1.000  C
  C13      1.0000 0.52683  0.52683  0.03869  Biso   1.000  C
  C14      1.0000 0.52683  0.52683  0.90765  Biso   1.000  C
  C15      1.0000 0.90765  0.03869  0.52683  Biso   1.000  C
  C16      1.0000 0.03869  0.90765  0.52683  Biso   1.000  C
  C17      1.0000 0.03869  0.52683  0.90765  Biso   1.000  C
  C18      1.0000 0.90765  0.52683  0.03869  Biso   1.000  C
  C19      1.0000 0.52683  0.03869  0.52683  Biso   1.000  C
  C20      1.0000 0.52683  0.90765  0.52683  Biso   1.000  C
  C21      1.0000 0.90765  0.52683  0.52683  Biso   1.000  C
  C22      1.0000 0.03869  0.52683  0.52683  Biso   1.000  C
  C23      1.0000 0.52683  0.03869  0.90765  Biso   1.000  C
  C24      1.0000 0.52683  0.90765  0.03869  Biso   1.000  C
  C25      1.0000 0.38843  0.38843  0.11157  Biso   1.000  C
  C26      1.0000 0.44641  0.44641  0.05359  Biso   1.000  C
  C27      1.0000 0.11157  0.11157  0.38843  Biso   1.000  C
  C28      1.0000 0.05359  0.05359  0.44641  Biso   1.000  C
  C29      1.0000 0.38843  0.11157  0.11157  Biso   1.000  C
  C30      1.0000 0.44641  0.05359  0.05359  Biso   1.000  C
  C31      1.0000 0.11157  0.38843  0.38843  Biso   1.000  C
  C32      1.0000 0.05359  0.44641  0.44641  Biso   1.000  C
  C33      1.0000 0.38843  0.11157  0.38843  Biso   1.000  C
  C34      1.0000 0.44641  0.05359  0.44641  Biso   1.000  C
  C35      1.0000 0.11157  0.38843  0.11157  Biso   1.000  C
  C36      1.0000 0.05359  0.44641  0.05359  Biso   1.000  C
  C37      1.0000 0.61157  0.61157  0.88843  Biso   1.000  C
  C38      1.0000 0.55359  0.55359  0.94641  Biso   1.000  C
  C39      1.0000 0.88843  0.88843  0.61157  Biso   1.000  C
  C40      1.0000 0.94641  0.94641  0.55359  Biso   1.000  C
  C41      1.0000 0.88843  0.61157  0.88843  Biso   1.000  C
  C42      1.0000 0.94641  0.55359  0.94641  Biso   1.000  C
  C43      1.0000 0.61157  0.88843  0.61157  Biso   1.000  C
  C44      1.0000 0.55359  0.94641  0.55359  Biso   1.000  C
  C45      1.0000 0.88843  0.61157  0.61157  Biso   1.000  C
  C46      1.0000 0.94641  0.55359  0.55359  Biso   1.000  C
  C47      1.0000 0.61157  0.88843  0.88843  Biso   1.000  C
  C48      1.0000 0.55359  0.94641  0.94641  Biso   1.000  C
  O1       1.0000 0.25000  0.25000  0.25000  Biso   1.000  O
  O2       1.0000 0.75000  0.75000  0.75000  Biso   1.000  O
  O3       1.0000 0.36629  0.36629  0.07237  Biso   1.000  O
  O4       1.0000 0.36629  0.36629  0.19505  Biso   1.000  O
  O5       1.0000 0.07237  0.19505  0.36629  Biso   1.000  O
  O6       1.0000 0.19505  0.07237  0.36629  Biso   1.000  O
  O7       1.0000 0.36629  0.07237  0.19505  Biso   1.000  O
  O8       1.0000 0.36629  0.19505  0.07237  Biso   1.000  O
  O9       1.0000 0.07237  0.36629  0.36629  Biso   1.000  O
  O10      1.0000 0.19505  0.36629  0.36629  Biso   1.000  O
  O11      1.0000 0.36629  0.19505  0.36629  Biso   1.000  O
  O12      1.0000 0.36629  0.07237  0.36629  Biso   1.000  O
  O13      1.0000 0.07237  0.36629  0.19505  Biso   1.000  O
  O14      1.0000 0.19505  0.36629  0.07237  Biso   1.000  O
  O15      1.0000 0.63371  0.63371  0.92763  Biso   1.000  O
  O16      1.0000 0.63371  0.63371  0.80495  Biso   1.000  O
  O17      1.0000 0.80495  0.92763  0.63371  Biso   1.000  O
  O18      1.0000 0.92763  0.80495  0.63371  Biso   1.000  O
  O19      1.0000 0.92763  0.63371  0.80495  Biso   1.000  O
  O20      1.0000 0.80495  0.63371  0.92763  Biso   1.000  O
  O21      1.0000 0.63371  0.92763  0.63371  Biso   1.000  O
  O22      1.0000 0.63371  0.80495  0.63371  Biso   1.000  O
  O23      1.0000 0.80495  0.63371  0.63371  Biso   1.000  O
  O24      1.0000 0.92763  0.63371  0.63371  Biso   1.000  O
  O25      1.0000 0.63371  0.92763  0.80495  Biso   1.000  O
  O26      1.0000 0.63371  0.80495  0.92763  Biso   1.000  O
  Zn9      1.0000 0.50109  0.51858  0.33407  Biso   1.000  Zn
  Zn10     1.0000 0.50109  0.51858  0.50752  Biso   1.000  Zn
  Zn11     1.0000 0.32764  0.51858  0.50752  Biso   1.000  Zn
  Zn12     1.0000 0.50109  0.34513  0.50752  Biso   1.000  Zn
  Zn13     1.0000 0.91317  0.93063  0.09303  Biso   1.000  Zn
  Zn14     1.0000 0.91317  0.93063  0.91958  Biso   1.000  Zn
  Zn15     1.0000 0.91317  0.10408  0.91958  Biso   1.000  Zn
  Zn16     1.0000 0.08662  0.93063  0.91958  Biso   1.000  Zn
  H25      1.0000 0.66224  0.67971  0.14770  Biso   1.000  H
  H26      1.0000 0.66224  0.67971  0.36919  Biso   1.000  H
  H27      1.0000 0.14128  0.38024  0.66866  Biso   1.000  H
  H28      1.0000 0.36277  0.15875  0.66866  Biso   1.000  H
  H29      1.0000 0.66224  0.15875  0.36919  Biso   1.000  H
  H30      1.0000 0.66224  0.38024  0.14770  Biso   1.000  H
  H31      1.0000 0.14128  0.67971  0.66866  Biso   1.000  H
  H32      1.0000 0.36277  0.67971  0.66866  Biso   1.000  H
  H33      1.0000 0.66224  0.38024  0.66866  Biso   1.000  H
  H34      1.0000 0.66224  0.15875  0.66866  Biso   1.000  H
  H35      1.0000 0.14128  0.67971  0.36919  Biso   1.000  H
  H36      1.0000 0.36277  0.67971  0.14770  Biso   1.000  H
  H37      1.0000 0.75202  0.76950  0.27941  Biso   1.000  H
  H38      1.0000 0.75202  0.76950  0.05791  Biso   1.000  H
  H39      1.0000 0.05149  0.29046  0.75844  Biso   1.000  H
  H40      1.0000 0.27298  0.06897  0.75844  Biso   1.000  H
  H41      1.0000 0.27298  0.76950  0.05791  Biso   1.000  H
  H42      1.0000 0.05149  0.76950  0.27941  Biso   1.000  H
  H43      1.0000 0.75202  0.29046  0.75844  Biso   1.000  H
  H44      1.0000 0.75202  0.06897  0.75844  Biso   1.000  H
  H45      1.0000 0.05149  0.76950  0.75844  Biso   1.000  H
  H46      1.0000 0.27298  0.76950  0.75844  Biso   1.000  H
  H47      1.0000 0.75202  0.29046  0.05791  Biso   1.000  H
  H48      1.0000 0.75202  0.06897  0.27941  Biso   1.000  H
  C49      1.0000 0.68041  0.69789  0.17455  Biso   1.000  C
  C50      1.0000 0.68041  0.69789  0.30598  Biso   1.000  C
  C51      1.0000 0.16813  0.31704  0.68684  Biso   1.000  C
  C52      1.0000 0.29956  0.18561  0.68684  Biso   1.000  C
  C53      1.0000 0.68042  0.18561  0.30598  Biso   1.000  C
  C54      1.0000 0.68042  0.31704  0.17455  Biso   1.000  C
  C55      1.0000 0.16813  0.69789  0.68684  Biso   1.000  C
  C56      1.0000 0.29956  0.69789  0.68684  Biso   1.000  C
  C57      1.0000 0.68041  0.31704  0.68684  Biso   1.000  C
  C58      1.0000 0.68041  0.18561  0.68684  Biso   1.000  C
  C59      1.0000 0.16813  0.69789  0.30598  Biso   1.000  C
  C60      1.0000 0.29956  0.69789  0.17455  Biso   1.000  C
  C61      1.0000 0.73385  0.75132  0.25255  Biso   1.000  C
  C62      1.0000 0.73385  0.75132  0.12112  Biso   1.000  C
  C63      1.0000 0.11470  0.26361  0.74027  Biso   1.000  C
  C64      1.0000 0.24613  0.13217  0.74027  Biso   1.000  C
  C65      1.0000 0.24613  0.75132  0.12112  Biso   1.000  C
  C66      1.0000 0.11470  0.75132  0.25255  Biso   1.000  C
  C67      1.0000 0.73385  0.26361  0.74027  Biso   1.000  C
  C68      1.0000 0.73385  0.13217  0.74027  Biso   1.000  C
  C69      1.0000 0.11470  0.75132  0.74027  Biso   1.000  C
  C70      1.0000 0.24613  0.75132  0.74027  Biso   1.000  C
  C71      1.0000 0.73385  0.26361  0.12112  Biso   1.000  C
  C72      1.0000 0.73385  0.13217  0.25255  Biso   1.000  C
  C73      1.0000 0.59580  0.61328  0.32609  Biso   1.000  C
  C74      1.0000 0.65365  0.67112  0.26824  Biso   1.000  C
  C75      1.0000 0.31967  0.33715  0.60222  Biso   1.000  C
  C76      1.0000 0.26182  0.27930  0.66007  Biso   1.000  C
  C77      1.0000 0.59580  0.33715  0.32609  Biso   1.000  C
  C78      1.0000 0.65365  0.27930  0.26824  Biso   1.000  C
  C79      1.0000 0.31967  0.61328  0.60222  Biso   1.000  C
  C80      1.0000 0.26182  0.67112  0.66007  Biso   1.000  C
  C81      1.0000 0.59580  0.33715  0.60222  Biso   1.000  C
  C82      1.0000 0.65365  0.27930  0.66007  Biso   1.000  C
  C83      1.0000 0.31967  0.61328  0.32609  Biso   1.000  C
  C84      1.0000 0.26182  0.67112  0.26824  Biso   1.000  C
  C85      1.0000 0.81846  0.83593  0.10101  Biso   1.000  C
  C86      1.0000 0.76061  0.77809  0.15886  Biso   1.000  C
  C87      1.0000 0.09459  0.11206  0.82488  Biso   1.000  C
  C88      1.0000 0.15244  0.16991  0.76703  Biso   1.000  C
  C89      1.0000 0.09459  0.83593  0.10101  Biso   1.000  C
  C90      1.0000 0.15244  0.77809  0.15886  Biso   1.000  C
  C91      1.0000 0.81846  0.11206  0.82488  Biso   1.000  C
  C92      1.0000 0.76061  0.16991  0.76703  Biso   1.000  C
  C93      1.0000 0.09459  0.83593  0.82488  Biso   1.000  C
  C94      1.0000 0.15244  0.77809  0.76703  Biso   1.000  C
  C95      1.0000 0.81846  0.11206  0.10101  Biso   1.000  C
  C96      1.0000 0.76061  0.16991  0.15886  Biso   1.000  C
  O27      1.0000 0.45774  0.47521  0.46416  Biso   1.000  O
  O28      1.0000 0.95652  0.97400  0.96294  Biso   1.000  O
  O29      1.0000 0.57357  0.59105  0.28757  Biso   1.000  O
  O30      1.0000 0.57357  0.59105  0.40907  Biso   1.000  O
  O31      1.0000 0.28115  0.42012  0.57999  Biso   1.000  O
  O32      1.0000 0.40265  0.29862  0.57999  Biso   1.000  O
  O33      1.0000 0.57357  0.29862  0.40907  Biso   1.000  O
  O34      1.0000 0.57357  0.42012  0.28757  Biso   1.000  O
  O35      1.0000 0.28115  0.59105  0.57999  Biso   1.000  O
  O36      1.0000 0.40265  0.59105  0.57999  Biso   1.000  O
  O37      1.0000 0.57357  0.42012  0.57999  Biso   1.000  O
  O38      1.0000 0.57357  0.29862  0.57999  Biso   1.000  O
  O39      1.0000 0.28115  0.59105  0.40907  Biso   1.000  O
  O40      1.0000 0.40265  0.59105  0.28757  Biso   1.000  O
  O41      1.0000 0.84069  0.85816  0.13954  Biso   1.000  O
  O42      1.0000 0.84069  0.85816  0.01803  Biso   1.000  O
  O43      1.0000 0.01161  0.15059  0.84711  Biso   1.000  O
  O44      1.0000 0.13312  0.02909  0.84711  Biso   1.000  O
  O45      1.0000 0.13312  0.85816  0.01803  Biso   1.000  O
  O46      1.0000 0.01161  0.85816  0.13954  Biso   1.000  O
  O47      1.0000 0.84069  0.15059  0.84711  Biso   1.000  O
  O48      1.0000 0.84069  0.02909  0.84711  Biso   1.000  O
  O49      1.0000 0.01161  0.85816  0.84711  Biso   1.000  O
  O50      1.0000 0.13312  0.85816  0.84711  Biso   1.000  O
  O51      1.0000 0.84069  0.15059  0.01803  Biso   1.000  O
  O52      1.0000 0.84069  0.02909  0.13954  Biso   1.000  O
