data_image0
_cell_length_a       18.2115
_cell_length_b       18.2115
_cell_length_c       18.2115
_cell_angle_alpha    60
_cell_angle_beta     60
_cell_angle_gamma    60

_symmetry_space_group_name_H-M    "P 1"
_symmetry_int_tables_number       1

loop_
  _symmetry_equiv_pos_as_xyz
  'x, y, z'

loop_
  _atom_site_label
  _atom_site_occupancy
  _atom_site_fract_x
  _atom_site_fract_y
  _atom_site_fract_z
  _atom_site_thermal_displace_type
  _atom_site_B_iso_or_equiv
  _atom_site_type_symbol
  Zn1      1.0000 0.29361  0.29361  0.11917  Biso   1.000  Zn
  Zn2      1.0000 0.29361  0.29361  0.29361  Biso   1.000  Zn
  Zn3      1.0000 0.11917  0.29361  0.29361  Biso   1.000  Zn
  Zn4      1.0000 0.29361  0.11917  0.29361  Biso   1.000  Zn
  Zn5      1.0000 0.70639  0.70639  0.88083  Biso   1.000  Zn
  Zn6      1.0000 0.70639  0.70639  0.70639  Biso   1.000  Zn
  Zn7      1.0000 0.70639  0.88083  0.70639  Biso   1.000  Zn
  Zn8      1.0000 0.88083  0.70639  0.70639  Biso   1.000  Zn
  H1       1.0000 0.45530  0.45530  0.93770  Biso   1.000  H
  H2       1.0000 0.45530  0.45530  0.15170  Biso   1.000  H
  H3       1.0000 0.93770  0.15170  0.45530  Biso   1.000  H
  H4       1.0000 0.15170  0.93770  0.45530  Biso   1.000  H
  H5       1.0000 0.45530  0.93770  0.15170  Biso   1.000  H
  H6       1.0000 0.45530  0.15170  0.93770  Biso   1.000  H
  H7       1.0000 0.93770  0.45530  0.45530  Biso   1.000  H
  H8       1.0000 0.15170  0.45530  0.45530  Biso   1.000  H
  H9       1.0000 0.45530  0.15170  0.45530  Biso   1.000  H
  H10      1.0000 0.45530  0.93770  0.45530  Biso   1.000  H
  H11      1.0000 0.93770  0.45530  0.15170  Biso   1.000  H
  H12      1.0000 0.15170  0.45530  0.93770  Biso   1.000  H
  H13      1.0000 0.54470  0.54470  0.06230  Biso   1.000  H
  H14      1.0000 0.54470  0.54470  0.84830  Biso   1.000  H
  H15      1.0000 0.84830  0.06230  0.54470  Biso   1.000  H
  H16      1.0000 0.06230  0.84830  0.54470  Biso   1.000  H
  H17      1.0000 0.06230  0.54470  0.84830  Biso   1.000  H
  H18      1.0000 0.84830  0.54470  0.06230  Biso   1.000  H
  H19      1.0000 0.54470  0.06230  0.54470  Biso   1.000  H
  H20      1.0000 0.54470  0.84830  0.54470  Biso   1.000  H
  H21      1.0000 0.84830  0.54470  0.54470  Biso   1.000  H
  H22      1.0000 0.06230  0.54470  0.54470  Biso   1.000  H
  H23      1.0000 0.54470  0.06230  0.84830  Biso   1.000  H
  H24      1.0000 0.54470  0.84830  0.06230  Biso   1.000  H
  C1       1.0000 0.47300  0.47300  0.96450  Biso   1.000  C
  C2       1.0000 0.47300  0.47300  0.08950  Biso   1.000  C
  C3       1.0000 0.96450  0.08950  0.47300  Biso   1.000  C
  C4       1.0000 0.08950  0.96450  0.47300  Biso   1.000  C
  C5       1.0000 0.47300  0.96450  0.08950  Biso   1.000  C
  C6       1.0000 0.47300  0.08950  0.96450  Biso   1.000  C
  C7       1.0000 0.96450  0.47300  0.47300  Biso   1.000  C
  C8       1.0000 0.08950  0.47300  0.47300  Biso   1.000  C
  C9       1.0000 0.47300  0.08950  0.47300  Biso   1.000  C
  C10      1.0000 0.47300  0.96450  0.47300  Biso   1.000  C
  C11      1.0000 0.96450  0.47300  0.08950  Biso   1.000  C
  C12      1.0000 0.08950  0.47300  0.96450  Biso   1.000  C
  C13      1.0000 0.52700  0.52700  0.03550  Biso   1.000  C
  C14      1.0000 0.52700  0.52700  0.91050  Biso   1.000  C
  C15      1.0000 0.91050  0.03550  0.52700  Biso   1.000  C
  C16      1.0000 0.03550  0.91050  0.52700  Biso   1.000  C
  C17      1.0000 0.03550  0.52700  0.91050  Biso   1.000  C
  C18      1.0000 0.91050  0.52700  0.03550  Biso   1.000  C
  C19      1.0000 0.52700  0.03550  0.52700  Biso   1.000  C
  C20      1.0000 0.52700  0.91050  0.52700  Biso   1.000  C
  C21      1.0000 0.91050  0.52700  0.52700  Biso   1.000  C
  C22      1.0000 0.03550  0.52700  0.52700  Biso   1.000  C
  C23      1.0000 0.52700  0.03550  0.91050  Biso   1.000  C
  C24      1.0000 0.52700  0.91050  0.03550  Biso   1.000  C
  C25      1.0000 0.38860  0.38860  0.11140  Biso   1.000  C
  C26      1.0000 0.44600  0.44600  0.05400  Biso   1.000  C
  C27      1.0000 0.11140  0.11140  0.38860  Biso   1.000  C
  C28      1.0000 0.05400  0.05400  0.44600  Biso   1.000  C
  C29      1.0000 0.38860  0.11140  0.11140  Biso   1.000  C
  C30      1.0000 0.44600  0.05400  0.05400  Biso   1.000  C
  C31      1.0000 0.11140  0.38860  0.38860  Biso   1.000  C
  C32      1.0000 0.05400  0.44600  0.44600  Biso   1.000  C
  C33      1.0000 0.38860  0.11140  0.38860  Biso   1.000  C
  C34      1.0000 0.44600  0.05400  0.44600  Biso   1.000  C
  C35      1.0000 0.11140  0.38860  0.11140  Biso   1.000  C
  C36      1.0000 0.05400  0.44600  0.05400  Biso   1.000  C
  C37      1.0000 0.61140  0.61140  0.88860  Biso   1.000  C
  C38      1.0000 0.55400  0.55400  0.94600  Biso   1.000  C
  C39      1.0000 0.88860  0.88860  0.61140  Biso   1.000  C
  C40      1.0000 0.94600  0.94600  0.55400  Biso   1.000  C
  C41      1.0000 0.88860  0.61140  0.88860  Biso   1.000  C
  C42      1.0000 0.94600  0.55400  0.94600  Biso   1.000  C
  C43      1.0000 0.61140  0.88860  0.61140  Biso   1.000  C
  C44      1.0000 0.55400  0.94600  0.55400  Biso   1.000  C
  C45      1.0000 0.88860  0.61140  0.61140  Biso   1.000  C
  C46      1.0000 0.94600  0.55400  0.55400  Biso   1.000  C
  C47      1.0000 0.61140  0.88860  0.88860  Biso   1.000  C
  C48      1.0000 0.55400  0.94600  0.94600  Biso   1.000  C
  O1       1.0000 0.25000  0.25000  0.25000  Biso   1.000  O
  O2       1.0000 0.75000  0.75000  0.75000  Biso   1.000  O
  O3       1.0000 0.36611  0.36611  0.07317  Biso   1.000  O
  O4       1.0000 0.36611  0.36611  0.19461  Biso   1.000  O
  O5       1.0000 0.07317  0.19461  0.36611  Biso   1.000  O
  O6       1.0000 0.19461  0.07317  0.36611  Biso   1.000  O
  O7       1.0000 0.36611  0.07317  0.19461  Biso   1.000  O
  O8       1.0000 0.36611  0.19461  0.07317  Biso   1.000  O
  O9       1.0000 0.07317  0.36611  0.36611  Biso   1.000  O
  O10      1.0000 0.19461  0.36611  0.36611  Biso   1.000  O
  O11      1.0000 0.36611  0.19461  0.36611  Biso   1.000  O
  O12      1.0000 0.36611  0.07317  0.36611  Biso   1.000  O
  O13      1.0000 0.07317  0.36611  0.19461  Biso   1.000  O
  O14      1.0000 0.19461  0.36611  0.07317  Biso   1.000  O
  O15      1.0000 0.63389  0.63389  0.92683  Biso   1.000  O
  O16      1.0000 0.63389  0.63389  0.80539  Biso   1.000  O
  O17      1.0000 0.80539  0.92683  0.63389  Biso   1.000  O
  O18      1.0000 0.92683  0.80539  0.63389  Biso   1.000  O
  O19      1.0000 0.92683  0.63389  0.80539  Biso   1.000  O
  O20      1.0000 0.80539  0.63389  0.92683  Biso   1.000  O
  O21      1.0000 0.63389  0.92683  0.63389  Biso   1.000  O
  O22      1.0000 0.63389  0.80539  0.63389  Biso   1.000  O
  O23      1.0000 0.80539  0.63389  0.63389  Biso   1.000  O
  O24      1.0000 0.92683  0.63389  0.63389  Biso   1.000  O
  O25      1.0000 0.63389  0.92683  0.80539  Biso   1.000  O
  O26      1.0000 0.63389  0.80539  0.92683  Biso   1.000  O
  Zn9      1.0000 0.00549  0.83798  0.13373  Biso   1.000  Zn
  Zn10     1.0000 0.83333  0.01013  0.13373  Biso   1.000  Zn
  Zn11     1.0000 0.42516  0.42980  0.72555  Biso   1.000  Zn
  Zn12     1.0000 0.00549  0.01013  0.13373  Biso   1.000  Zn
  Zn13     1.0000 0.42516  0.60196  0.55340  Biso   1.000  Zn
  Zn14     1.0000 0.42516  0.42980  0.55340  Biso   1.000  Zn
  Zn15     1.0000 0.59732  0.42980  0.55340  Biso   1.000  Zn
  Zn16     1.0000 0.00549  0.01013  0.96157  Biso   1.000  Zn
  C49      1.0000 0.62923  0.75645  0.37412  Biso   1.000  C
  C50      1.0000 0.18477  0.68349  0.31300  Biso   1.000  C
  C51      1.0000 0.75180  0.25053  0.37412  Biso   1.000  C
  C52      1.0000 0.15630  0.77325  0.89684  Biso   1.000  C
  C53      1.0000 0.62923  0.25053  0.88004  Biso   1.000  C
  C54      1.0000 0.76861  0.77325  0.28453  Biso   1.000  C
  C55      1.0000 0.60392  0.60857  0.46072  Biso   1.000  C
  C56      1.0000 0.67885  0.80607  0.31300  Biso   1.000  C
  C57      1.0000 0.80143  0.68349  0.31300  Biso   1.000  C
  C58      1.0000 0.15630  0.16094  0.89684  Biso   1.000  C
  C59      1.0000 0.15630  0.77325  0.28453  Biso   1.000  C
  C60      1.0000 0.24589  0.75645  0.75746  Biso   1.000  C
  C61      1.0000 0.24589  0.63387  0.37412  Biso   1.000  C
  C62      1.0000 0.09817  0.83137  0.22641  Biso   1.000  C
  C63      1.0000 0.82673  0.10282  0.95497  Biso   1.000  C
  C64      1.0000 0.60392  0.33712  0.46072  Biso   1.000  C
  C65      1.0000 0.82673  0.10282  0.22641  Biso   1.000  C
  C66      1.0000 0.82673  0.83137  0.22641  Biso   1.000  C
  C67      1.0000 0.75180  0.63387  0.37412  Biso   1.000  C
  C68      1.0000 0.80143  0.18941  0.31300  Biso   1.000  C
  C69      1.0000 0.33248  0.60857  0.46072  Biso   1.000  C
  C70      1.0000 0.67885  0.18941  0.31300  Biso   1.000  C
  C71      1.0000 0.24589  0.63387  0.88004  Biso   1.000  C
  C72      1.0000 0.09817  0.10282  0.95497  Biso   1.000  C
  C73      1.0000 0.67885  0.18941  0.92966  Biso   1.000  C
  C74      1.0000 0.60392  0.33712  0.73216  Biso   1.000  C
  C75      1.0000 0.27436  0.66669  0.40259  Biso   1.000  C
  C76      1.0000 0.62923  0.25053  0.37412  Biso   1.000  C
  C77      1.0000 0.18477  0.18941  0.80709  Biso   1.000  C
  C78      1.0000 0.09817  0.83137  0.95497  Biso   1.000  C
  C79      1.0000 0.75180  0.25053  0.75746  Biso   1.000  C
  C80      1.0000 0.18477  0.18941  0.92966  Biso   1.000  C
  C81      1.0000 0.66205  0.27900  0.79028  Biso   1.000  C
  C82      1.0000 0.24589  0.75645  0.37412  Biso   1.000  C
  C83      1.0000 0.24589  0.25053  0.75746  Biso   1.000  C
  C84      1.0000 0.33248  0.60857  0.73216  Biso   1.000  C
  C85      1.0000 0.24589  0.25053  0.88004  Biso   1.000  C
  C86      1.0000 0.18477  0.68349  0.92966  Biso   1.000  C
  C87      1.0000 0.18477  0.80607  0.80709  Biso   1.000  C
  C88      1.0000 0.76861  0.16094  0.28453  Biso   1.000  C
  C89      1.0000 0.18477  0.80607  0.31300  Biso   1.000  C
  C90      1.0000 0.66205  0.27900  0.40259  Biso   1.000  C
  C91      1.0000 0.27436  0.66669  0.79028  Biso   1.000  C
  C92      1.0000 0.33248  0.33712  0.73216  Biso   1.000  C
  C93      1.0000 0.27436  0.27900  0.79028  Biso   1.000  C
  C94      1.0000 0.76861  0.16094  0.89684  Biso   1.000  C
  C95      1.0000 0.80143  0.18941  0.80709  Biso   1.000  C
  C96      1.0000 0.66205  0.66669  0.40259  Biso   1.000  C
  O27      1.0000 0.35314  0.65056  0.48137  Biso   1.000  O
  O28      1.0000 0.35314  0.65056  0.64885  Biso   1.000  O
  O29      1.0000 0.07751  0.78938  0.20575  Biso   1.000  O
  O30      1.0000 0.52061  0.35778  0.77415  Biso   1.000  O
  O31      1.0000 0.35314  0.35778  0.77415  Biso   1.000  O
  O32      1.0000 0.07751  0.78938  0.03828  Biso   1.000  O
  O33      1.0000 0.91004  0.08216  0.91297  Biso   1.000  O
  O34      1.0000 0.07751  0.08216  0.91297  Biso   1.000  O
  O35      1.0000 0.35314  0.52525  0.48137  Biso   1.000  O
  O36      1.0000 0.64591  0.52525  0.48137  Biso   1.000  O
  O37      1.0000 0.07751  0.91468  0.20575  Biso   1.000  O
  O38      1.0000 0.35314  0.35778  0.64885  Biso   1.000  O
  O39      1.0000 0.91004  0.08216  0.20575  Biso   1.000  O
  O40      1.0000 0.78474  0.91468  0.20575  Biso   1.000  O
  O41      1.0000 0.78474  0.08216  0.20575  Biso   1.000  O
  O42      1.0000 0.35314  0.52525  0.77415  Biso   1.000  O
  O43      1.0000 0.46820  0.47284  0.59644  Biso   1.000  O
  O44      1.0000 0.52061  0.65056  0.48137  Biso   1.000  O
  O45      1.0000 0.91004  0.78938  0.20575  Biso   1.000  O
  O46      1.0000 0.78474  0.08216  0.03828  Biso   1.000  O
  O47      1.0000 0.64591  0.35778  0.48137  Biso   1.000  O
  O48      1.0000 0.07751  0.08216  0.03828  Biso   1.000  O
  O49      1.0000 0.96245  0.96709  0.09069  Biso   1.000  O
  O50      1.0000 0.52061  0.35778  0.48137  Biso   1.000  O
  O51      1.0000 0.07751  0.91468  0.91297  Biso   1.000  O
  O52      1.0000 0.64591  0.35778  0.64885  Biso   1.000  O
  H25      1.0000 0.55332  0.78834  0.39613  Biso   1.000  H
  H26      1.0000 0.16500  0.64766  0.29323  Biso   1.000  H
  H27      1.0000 0.78370  0.27253  0.39613  Biso   1.000  H
  H28      1.0000 0.55332  0.27253  0.91194  Biso   1.000  H
  H29      1.0000 0.64695  0.88197  0.29100  Biso   1.000  H
  H30      1.0000 0.87680  0.64766  0.29323  Biso   1.000  H
  H31      1.0000 0.26789  0.78834  0.68156  Biso   1.000  H
  H32      1.0000 0.26789  0.55796  0.39613  Biso   1.000  H
  H33      1.0000 0.78370  0.55796  0.39613  Biso   1.000  H
  H34      1.0000 0.87733  0.16740  0.29100  Biso   1.000  H
  H35      1.0000 0.64695  0.16740  0.29100  Biso   1.000  H
  H36      1.0000 0.26789  0.55796  0.91194  Biso   1.000  H
  H37      1.0000 0.64695  0.16740  0.00557  Biso   1.000  H
  H38      1.0000 0.55332  0.27253  0.39613  Biso   1.000  H
  H39      1.0000 0.16500  0.16964  0.77125  Biso   1.000  H
  H40      1.0000 0.78764  0.27030  0.68209  Biso   1.000  H
  H41      1.0000 0.16500  0.16964  0.00503  Biso   1.000  H
  H42      1.0000 0.26566  0.79228  0.39389  Biso   1.000  H
  H43      1.0000 0.26789  0.27253  0.68156  Biso   1.000  H
  H44      1.0000 0.26789  0.27253  0.91194  Biso   1.000  H
  H45      1.0000 0.16500  0.64766  0.00503  Biso   1.000  H
  H46      1.0000 0.16500  0.88144  0.77125  Biso   1.000  H
  H47      1.0000 0.16500  0.88144  0.29323  Biso   1.000  H
  H48      1.0000 0.87733  0.16740  0.77519  Biso   1.000  H
