data_image0
_cell_length_a       18.2115
_cell_length_b       18.2115
_cell_length_c       18.2115
_cell_angle_alpha    60
_cell_angle_beta     60
_cell_angle_gamma    60

_symmetry_space_group_name_H-M    "P 1"
_symmetry_int_tables_number       1

loop_
  _symmetry_equiv_pos_as_xyz
  'x, y, z'

loop_
  _atom_site_label
  _atom_site_occupancy
  _atom_site_fract_x
  _atom_site_fract_y
  _atom_site_fract_z
  _atom_site_thermal_displace_type
  _atom_site_B_iso_or_equiv
  _atom_site_type_symbol
  C1       1.0000 0.29361  0.29361  0.11917  Biso   1.000  C
  C2       1.0000 0.29361  0.29361  0.29361  Biso   1.000  C
  C3       1.0000 0.11917  0.29361  0.29361  Biso   1.000  C
  C4       1.0000 0.29361  0.11917  0.29361  Biso   1.000  C
  C5       1.0000 0.70639  0.70639  0.88083  Biso   1.000  C
  C6       1.0000 0.70639  0.70639  0.70639  Biso   1.000  C
  C7       1.0000 0.70639  0.88083  0.70639  Biso   1.000  C
  C8       1.0000 0.88083  0.70639  0.70639  Biso   1.000  C
  C9       1.0000 0.45530  0.45530  0.93770  Biso   1.000  C
  C10      1.0000 0.45530  0.45530  0.15170  Biso   1.000  C
  C11      1.0000 0.93770  0.15170  0.45530  Biso   1.000  C
  C12      1.0000 0.15170  0.93770  0.45530  Biso   1.000  C
  C13      1.0000 0.45530  0.93770  0.15170  Biso   1.000  C
  C14      1.0000 0.45530  0.15170  0.93770  Biso   1.000  C
  C15      1.0000 0.93770  0.45530  0.45530  Biso   1.000  C
  C16      1.0000 0.15170  0.45530  0.45530  Biso   1.000  C
  C17      1.0000 0.45530  0.15170  0.45530  Biso   1.000  C
  C18      1.0000 0.45530  0.93770  0.45530  Biso   1.000  C
  C19      1.0000 0.93770  0.45530  0.15170  Biso   1.000  C
  C20      1.0000 0.15170  0.45530  0.93770  Biso   1.000  C
  C21      1.0000 0.54470  0.54470  0.06230  Biso   1.000  C
  C22      1.0000 0.54470  0.54470  0.84830  Biso   1.000  C
  C23      1.0000 0.84830  0.06230  0.54470  Biso   1.000  C
  C24      1.0000 0.06230  0.84830  0.54470  Biso   1.000  C
  C25      1.0000 0.06230  0.54470  0.84830  Biso   1.000  C
  C26      1.0000 0.84830  0.54470  0.06230  Biso   1.000  C
  C27      1.0000 0.54470  0.06230  0.54470  Biso   1.000  C
  C28      1.0000 0.54470  0.84830  0.54470  Biso   1.000  C
  C29      1.0000 0.84830  0.54470  0.54470  Biso   1.000  C
  C30      1.0000 0.06230  0.54470  0.54470  Biso   1.000  C
  C31      1.0000 0.54470  0.06230  0.84830  Biso   1.000  C
  C32      1.0000 0.54470  0.84830  0.06230  Biso   1.000  C
  C33      1.0000 0.47300  0.47300  0.96450  Biso   1.000  C
  C34      1.0000 0.47300  0.47300  0.08950  Biso   1.000  C
  C35      1.0000 0.96450  0.08950  0.47300  Biso   1.000  C
  C36      1.0000 0.08950  0.96450  0.47300  Biso   1.000  C
  C37      1.0000 0.47300  0.96450  0.08950  Biso   1.000  C
  C38      1.0000 0.47300  0.08950  0.96450  Biso   1.000  C
  C39      1.0000 0.96450  0.47300  0.47300  Biso   1.000  C
  C40      1.0000 0.08950  0.47300  0.47300  Biso   1.000  C
  C41      1.0000 0.47300  0.08950  0.47300  Biso   1.000  C
  C42      1.0000 0.47300  0.96450  0.47300  Biso   1.000  C
  C43      1.0000 0.96450  0.47300  0.08950  Biso   1.000  C
  C44      1.0000 0.08950  0.47300  0.96450  Biso   1.000  C
  C45      1.0000 0.52700  0.52700  0.03550  Biso   1.000  C
  C46      1.0000 0.52700  0.52700  0.91050  Biso   1.000  C
  C47      1.0000 0.91050  0.03550  0.52700  Biso   1.000  C
  C48      1.0000 0.03550  0.91050  0.52700  Biso   1.000  C
  C49      1.0000 0.03550  0.52700  0.91050  Biso   1.000  C
  C50      1.0000 0.91050  0.52700  0.03550  Biso   1.000  C
  C51      1.0000 0.52700  0.03550  0.52700  Biso   1.000  C
  C52      1.0000 0.52700  0.91050  0.52700  Biso   1.000  C
  C53      1.0000 0.91050  0.52700  0.52700  Biso   1.000  C
  C54      1.0000 0.03550  0.52700  0.52700  Biso   1.000  C
  C55      1.0000 0.52700  0.03550  0.91050  Biso   1.000  C
  C56      1.0000 0.52700  0.91050  0.03550  Biso   1.000  C
  C57      1.0000 0.38860  0.38860  0.11140  Biso   1.000  C
  C58      1.0000 0.44600  0.44600  0.05400  Biso   1.000  C
  C59      1.0000 0.11140  0.11140  0.38860  Biso   1.000  C
  C60      1.0000 0.05400  0.05400  0.44600  Biso   1.000  C
  C61      1.0000 0.38860  0.11140  0.11140  Biso   1.000  C
  C62      1.0000 0.44600  0.05400  0.05400  Biso   1.000  C
  C63      1.0000 0.11140  0.38860  0.38860  Biso   1.000  C
  C64      1.0000 0.05400  0.44600  0.44600  Biso   1.000  C
  C65      1.0000 0.38860  0.11140  0.38860  Biso   1.000  C
  C66      1.0000 0.44600  0.05400  0.44600  Biso   1.000  C
  C67      1.0000 0.11140  0.38860  0.11140  Biso   1.000  C
  C68      1.0000 0.05400  0.44600  0.05400  Biso   1.000  C
  C69      1.0000 0.61140  0.61140  0.88860  Biso   1.000  C
  C70      1.0000 0.55400  0.55400  0.94600  Biso   1.000  C
  C71      1.0000 0.88860  0.88860  0.61140  Biso   1.000  C
  C72      1.0000 0.94600  0.94600  0.55400  Biso   1.000  C
  C73      1.0000 0.88860  0.61140  0.88860  Biso   1.000  C
  C74      1.0000 0.94600  0.55400  0.94600  Biso   1.000  C
  C75      1.0000 0.61140  0.88860  0.61140  Biso   1.000  C
  C76      1.0000 0.55400  0.94600  0.55400  Biso   1.000  C
  C77      1.0000 0.88860  0.61140  0.61140  Biso   1.000  C
  C78      1.0000 0.94600  0.55400  0.55400  Biso   1.000  C
  C79      1.0000 0.61140  0.88860  0.88860  Biso   1.000  C
  C80      1.0000 0.55400  0.94600  0.94600  Biso   1.000  C
  C81      1.0000 0.25000  0.25000  0.25000  Biso   1.000  C
  C82      1.0000 0.75000  0.75000  0.75000  Biso   1.000  C
  C83      1.0000 0.36611  0.36611  0.07317  Biso   1.000  C
  C84      1.0000 0.36611  0.36611  0.19461  Biso   1.000  C
  C85      1.0000 0.07317  0.19461  0.36611  Biso   1.000  C
  C86      1.0000 0.19461  0.07317  0.36611  Biso   1.000  C
  C87      1.0000 0.36611  0.07317  0.19461  Biso   1.000  C
  C88      1.0000 0.36611  0.19461  0.07317  Biso   1.000  C
  C89      1.0000 0.07317  0.36611  0.36611  Biso   1.000  C
  C90      1.0000 0.19461  0.36611  0.36611  Biso   1.000  C
  C91      1.0000 0.36611  0.19461  0.36611  Biso   1.000  C
  C92      1.0000 0.36611  0.07317  0.36611  Biso   1.000  C
  C93      1.0000 0.07317  0.36611  0.19461  Biso   1.000  C
  C94      1.0000 0.19461  0.36611  0.07317  Biso   1.000  C
  C95      1.0000 0.63389  0.63389  0.92683  Biso   1.000  C
  C96      1.0000 0.63389  0.63389  0.80539  Biso   1.000  C
  C97      1.0000 0.80539  0.92683  0.63389  Biso   1.000  C
  C98      1.0000 0.92683  0.80539  0.63389  Biso   1.000  C
  C99      1.0000 0.92683  0.63389  0.80539  Biso   1.000  C
  C100     1.0000 0.80539  0.63389  0.92683  Biso   1.000  C
  C101     1.0000 0.63389  0.92683  0.63389  Biso   1.000  C
  C102     1.0000 0.63389  0.80539  0.63389  Biso   1.000  C
  C103     1.0000 0.80539  0.63389  0.63389  Biso   1.000  C
  C104     1.0000 0.92683  0.63389  0.63389  Biso   1.000  C
  C105     1.0000 0.63389  0.92683  0.80539  Biso   1.000  C
  C106     1.0000 0.63389  0.80539  0.92683  Biso   1.000  C
  O1       1.0000 0.08171  0.58103  0.58564  Biso   1.000  O
  O2       1.0000 0.49132  0.17130  0.99544  Biso   1.000  O
  O3       1.0000 0.49131  0.99565  0.99544  Biso   1.000  O
  O4       1.0000 0.08171  0.40538  0.58564  Biso   1.000  O
  O5       1.0000 0.08125  0.58137  0.40975  Biso   1.000  O
  O6       1.0000 0.90567  0.58118  0.58574  Biso   1.000  O
  O7       1.0000 0.49178  0.99531  0.17133  Biso   1.000  O
  O8       1.0000 0.66736  0.99550  0.99534  Biso   1.000  O
  O9       1.0000 0.24115  0.22936  0.44142  Biso   1.000  O
  O10      1.0000 0.23918  0.44072  0.22876  Biso   1.000  O
  O11      1.0000 0.93593  0.23045  0.74651  Biso   1.000  O
  O12      1.0000 0.72185  0.43818  0.74882  Biso   1.000  O
  O13      1.0000 0.24196  0.44019  0.74400  Biso   1.000  O
  O14      1.0000 0.33188  0.83485  0.13965  Biso   1.000  O
  O15      1.0000 0.33385  0.83163  0.35232  Biso   1.000  O
  O16      1.0000 0.63710  0.83577  0.83457  Biso   1.000  O
  O17      1.0000 0.85117  0.83175  0.83226  Biso   1.000  O
  O18      1.0000 0.33106  0.34904  0.83708  Biso   1.000  O
  O19      1.0000 0.33188  0.34732  0.13965  Biso   1.000  O
  O20      1.0000 0.33385  0.13596  0.35232  Biso   1.000  O
  O21      1.0000 0.63709  0.34623  0.83457  Biso   1.000  O
  O22      1.0000 0.85117  0.13850  0.83226  Biso   1.000  O
  O23      1.0000 0.33106  0.13649  0.83708  Biso   1.000  O
  O24      1.0000 0.24115  0.74183  0.44142  Biso   1.000  O
  O25      1.0000 0.23918  0.74505  0.22876  Biso   1.000  O
  O26      1.0000 0.93593  0.74091  0.74651  Biso   1.000  O
  O27      1.0000 0.72185  0.74493  0.74882  Biso   1.000  O
  O28      1.0000 0.24197  0.22764  0.74400  Biso   1.000  O
  O29      1.0000 0.72274  0.74374  0.44353  Biso   1.000  O
  O30      1.0000 0.93757  0.74485  0.22645  Biso   1.000  O
  O31      1.0000 0.85028  0.83294  0.13754  Biso   1.000  O
  O32      1.0000 0.63546  0.83183  0.35463  Biso   1.000  O
  O33      1.0000 0.17642  0.39682  0.40486  Biso   1.000  O
  O34      1.0000 0.23627  0.33847  0.34338  Biso   1.000  O
  O35      1.0000 0.25902  0.25518  0.37894  Biso   1.000  O
  O36      1.0000 0.25867  0.37835  0.25488  Biso   1.000  O
  O37      1.0000 0.89611  0.40002  0.68322  Biso   1.000  O
  O38      1.0000 0.84177  0.34126  0.73877  Biso   1.000  O
  O39      1.0000 0.87346  0.25677  0.76459  Biso   1.000  O
  O40      1.0000 0.74967  0.37591  0.76640  Biso   1.000  O
  O41      1.0000 0.25793  0.37782  0.76419  Biso   1.000  O
  O42      1.0000 0.39661  0.90104  0.17622  Biso   1.000  O
  O43      1.0000 0.33675  0.84107  0.23770  Biso   1.000  O
  O44      1.0000 0.31401  0.81607  0.20214  Biso   1.000  O
  O45      1.0000 0.31436  0.81485  0.32620  Biso   1.000  O
  O46      1.0000 0.67692  0.90226  0.89785  Biso   1.000  O
  O47      1.0000 0.73125  0.84471  0.84230  Biso   1.000  O
  O48      1.0000 0.69957  0.81769  0.81648  Biso   1.000  O
  O49      1.0000 0.82335  0.81488  0.81468  Biso   1.000  O
  O50      1.0000 0.31509  0.32283  0.81689  Biso   1.000  O
  O51      1.0000 0.39661  0.17986  0.17622  Biso   1.000  O
  O52      1.0000 0.33675  0.23821  0.23770  Biso   1.000  O
  O53      1.0000 0.31400  0.32150  0.20214  Biso   1.000  O
  O54      1.0000 0.31436  0.19833  0.32620  Biso   1.000  O
  O55      1.0000 0.67692  0.17666  0.89785  Biso   1.000  O
  O56      1.0000 0.73125  0.23542  0.84230  Biso   1.000  O
  O57      1.0000 0.69956  0.31991  0.81648  Biso   1.000  O
  O58      1.0000 0.82335  0.20077  0.81468  Biso   1.000  O
  O59      1.0000 0.31509  0.19886  0.81689  Biso   1.000  O
  O60      1.0000 0.17642  0.67564  0.40486  Biso   1.000  O
  O61      1.0000 0.23627  0.73561  0.34338  Biso   1.000  O
  O62      1.0000 0.25902  0.76061  0.37894  Biso   1.000  O
  O63      1.0000 0.25867  0.76183  0.25488  Biso   1.000  O
  O64      1.0000 0.89611  0.67442  0.68322  Biso   1.000  O
  O65      1.0000 0.84178  0.73197  0.73877  Biso   1.000  O
  O66      1.0000 0.87346  0.75899  0.76459  Biso   1.000  O
  O67      1.0000 0.74968  0.76180  0.76640  Biso   1.000  O
  O68      1.0000 0.25794  0.25385  0.76419  Biso   1.000  O
  O69      1.0000 0.90282  0.67644  0.39803  Biso   1.000  O
  O70      1.0000 0.84035  0.73390  0.34559  Biso   1.000  O
  O71      1.0000 0.75006  0.76122  0.38125  Biso   1.000  O
  O72      1.0000 0.87520  0.76243  0.25367  Biso   1.000  O
  O73      1.0000 0.17492  0.40183  0.67518  Biso   1.000  O
  O74      1.0000 0.23519  0.33985  0.73887  Biso   1.000  O
  O75      1.0000 0.67020  0.90024  0.18305  Biso   1.000  O
  O76      1.0000 0.73268  0.84278  0.23549  Biso   1.000  O
  O77      1.0000 0.82297  0.81546  0.19983  Biso   1.000  O
  O78      1.0000 0.69783  0.81425  0.32741  Biso   1.000  O
  O79      1.0000 0.39811  0.17485  0.90589  Biso   1.000  O
  O80      1.0000 0.33784  0.23683  0.84220  Biso   1.000  O
  O81      1.0000 0.15623  0.48260  0.35875  Biso   1.000  O
  O82      1.0000 0.15754  0.35272  0.48944  Biso   1.000  O
  O83      1.0000 0.85603  0.48359  0.65660  Biso   1.000  O
  O84      1.0000 0.98278  0.35573  0.66062  Biso   1.000  O
  O85      1.0000 0.15574  0.48459  0.65781  Biso   1.000  O
  O86      1.0000 0.41680  0.92052  0.22233  Biso   1.000  O
  O87      1.0000 0.41549  0.92264  0.09163  Biso   1.000  O
  O88      1.0000 0.71699  0.91913  0.92448  Biso   1.000  O
  O89      1.0000 0.59024  0.92204  0.92046  Biso   1.000  O
  O90      1.0000 0.41729  0.22105  0.92327  Biso   1.000  O
  O91      1.0000 0.41680  0.09408  0.22233  Biso   1.000  O
  O92      1.0000 0.41549  0.22396  0.09163  Biso   1.000  O
  O93      1.0000 0.71699  0.09309  0.92448  Biso   1.000  O
  O94      1.0000 0.59024  0.22095  0.92046  Biso   1.000  O
  O95      1.0000 0.41729  0.09209  0.92327  Biso   1.000  O
  O96      1.0000 0.15623  0.65616  0.35875  Biso   1.000  O
  O97      1.0000 0.15754  0.65404  0.48944  Biso   1.000  O
  O98      1.0000 0.85603  0.65755  0.65660  Biso   1.000  O
  O99      1.0000 0.98279  0.65463  0.66062  Biso   1.000  O
  O100     1.0000 0.15574  0.35563  0.65781  Biso   1.000  O
  O101     1.0000 0.03832  0.53703  0.54138  Biso   1.000  O
  O102     1.0000 0.98398  0.65515  0.35945  Biso   1.000  O
  O103     1.0000 0.85743  0.65746  0.48140  Biso   1.000  O
  O104     1.0000 0.53471  0.03965  0.03970  Biso   1.000  O
  O105     1.0000 0.58905  0.92153  0.22162  Biso   1.000  O
  O106     1.0000 0.71560  0.91922  0.09967  Biso   1.000  O
