data_image0
_cell_length_a       18.2965
_cell_length_b       18.2965
_cell_length_c       18.2965
_cell_angle_alpha    60
_cell_angle_beta     60
_cell_angle_gamma    60

_symmetry_space_group_name_H-M    "P 1"
_symmetry_int_tables_number       1

loop_
  _symmetry_equiv_pos_as_xyz
  'x, y, z'

loop_
  _atom_site_label
  _atom_site_occupancy
  _atom_site_fract_x
  _atom_site_fract_y
  _atom_site_fract_z
  _atom_site_thermal_displace_type
  _atom_site_B_iso_or_equiv
  _atom_site_type_symbol
  C1       1.0000 0.29344  0.29343  0.11970  Biso   1.000  C
  C2       1.0000 0.29344  0.29343  0.29343  Biso   1.000  C
  C3       1.0000 0.11971  0.29343  0.29343  Biso   1.000  C
  C4       1.0000 0.29344  0.11970  0.29343  Biso   1.000  C
  C5       1.0000 0.70656  0.70657  0.88030  Biso   1.000  C
  C6       1.0000 0.70656  0.70657  0.70657  Biso   1.000  C
  C7       1.0000 0.70656  0.88030  0.70657  Biso   1.000  C
  C8       1.0000 0.88029  0.70657  0.70657  Biso   1.000  C
  C9       1.0000 0.45520  0.45520  0.93480  Biso   1.000  C
  C10      1.0000 0.45520  0.45520  0.15480  Biso   1.000  C
  C11      1.0000 0.93480  0.15480  0.45520  Biso   1.000  C
  C12      1.0000 0.15480  0.93480  0.45520  Biso   1.000  C
  C13      1.0000 0.45520  0.93480  0.15480  Biso   1.000  C
  C14      1.0000 0.45520  0.15480  0.93480  Biso   1.000  C
  C15      1.0000 0.93480  0.45520  0.45520  Biso   1.000  C
  C16      1.0000 0.15480  0.45520  0.45520  Biso   1.000  C
  C17      1.0000 0.45520  0.15480  0.45520  Biso   1.000  C
  C18      1.0000 0.45520  0.93480  0.45520  Biso   1.000  C
  C19      1.0000 0.93480  0.45520  0.15480  Biso   1.000  C
  C20      1.0000 0.15480  0.45520  0.93480  Biso   1.000  C
  C21      1.0000 0.54480  0.54480  0.06520  Biso   1.000  C
  C22      1.0000 0.54480  0.54480  0.84520  Biso   1.000  C
  C23      1.0000 0.84520  0.06520  0.54480  Biso   1.000  C
  C24      1.0000 0.06520  0.84520  0.54480  Biso   1.000  C
  C25      1.0000 0.06520  0.54480  0.84520  Biso   1.000  C
  C26      1.0000 0.84520  0.54480  0.06520  Biso   1.000  C
  C27      1.0000 0.54480  0.06520  0.54480  Biso   1.000  C
  C28      1.0000 0.54480  0.84520  0.54480  Biso   1.000  C
  C29      1.0000 0.84520  0.54480  0.54480  Biso   1.000  C
  C30      1.0000 0.06520  0.54480  0.54480  Biso   1.000  C
  C31      1.0000 0.54480  0.06520  0.84520  Biso   1.000  C
  C32      1.0000 0.54480  0.84520  0.06520  Biso   1.000  C
  C33      1.0000 0.47339  0.47339  0.96175  Biso   1.000  C
  C34      1.0000 0.47339  0.47339  0.09147  Biso   1.000  C
  C35      1.0000 0.96175  0.09147  0.47339  Biso   1.000  C
  C36      1.0000 0.09147  0.96175  0.47339  Biso   1.000  C
  C37      1.0000 0.47339  0.96175  0.09147  Biso   1.000  C
  C38      1.0000 0.47339  0.09147  0.96175  Biso   1.000  C
  C39      1.0000 0.96175  0.47339  0.47339  Biso   1.000  C
  C40      1.0000 0.09147  0.47339  0.47339  Biso   1.000  C
  C41      1.0000 0.47339  0.09147  0.47339  Biso   1.000  C
  C42      1.0000 0.47339  0.96175  0.47339  Biso   1.000  C
  C43      1.0000 0.96175  0.47339  0.09147  Biso   1.000  C
  C44      1.0000 0.09147  0.47339  0.96175  Biso   1.000  C
  C45      1.0000 0.52661  0.52661  0.03825  Biso   1.000  C
  C46      1.0000 0.52661  0.52661  0.90853  Biso   1.000  C
  C47      1.0000 0.90853  0.03825  0.52661  Biso   1.000  C
  C48      1.0000 0.03825  0.90853  0.52661  Biso   1.000  C
  C49      1.0000 0.03825  0.52661  0.90853  Biso   1.000  C
  C50      1.0000 0.90853  0.52661  0.03825  Biso   1.000  C
  C51      1.0000 0.52661  0.03825  0.52661  Biso   1.000  C
  C52      1.0000 0.52661  0.90853  0.52661  Biso   1.000  C
  C53      1.0000 0.90853  0.52661  0.52661  Biso   1.000  C
  C54      1.0000 0.03825  0.52661  0.52661  Biso   1.000  C
  C55      1.0000 0.52661  0.03825  0.90853  Biso   1.000  C
  C56      1.0000 0.52661  0.90853  0.03825  Biso   1.000  C
  C57      1.0000 0.38840  0.38840  0.11160  Biso   1.000  C
  C58      1.0000 0.44637  0.44637  0.05363  Biso   1.000  C
  C59      1.0000 0.11160  0.11160  0.38840  Biso   1.000  C
  C60      1.0000 0.05363  0.05363  0.44637  Biso   1.000  C
  C61      1.0000 0.38840  0.11160  0.11160  Biso   1.000  C
  C62      1.0000 0.44637  0.05363  0.05363  Biso   1.000  C
  C63      1.0000 0.11160  0.38840  0.38840  Biso   1.000  C
  C64      1.0000 0.05363  0.44637  0.44637  Biso   1.000  C
  C65      1.0000 0.38840  0.11160  0.38840  Biso   1.000  C
  C66      1.0000 0.44637  0.05363  0.44637  Biso   1.000  C
  C67      1.0000 0.11160  0.38840  0.11160  Biso   1.000  C
  C68      1.0000 0.05363  0.44637  0.05363  Biso   1.000  C
  C69      1.0000 0.61160  0.61160  0.88840  Biso   1.000  C
  C70      1.0000 0.55363  0.55363  0.94637  Biso   1.000  C
  C71      1.0000 0.88840  0.88840  0.61160  Biso   1.000  C
  C72      1.0000 0.94637  0.94637  0.55363  Biso   1.000  C
  C73      1.0000 0.88840  0.61160  0.88840  Biso   1.000  C
  C74      1.0000 0.94637  0.55363  0.94637  Biso   1.000  C
  C75      1.0000 0.61160  0.88840  0.61160  Biso   1.000  C
  C76      1.0000 0.55363  0.94637  0.55363  Biso   1.000  C
  C77      1.0000 0.88840  0.61160  0.61160  Biso   1.000  C
  C78      1.0000 0.94637  0.55363  0.55363  Biso   1.000  C
  C79      1.0000 0.61160  0.88840  0.88840  Biso   1.000  C
  C80      1.0000 0.55363  0.94637  0.94637  Biso   1.000  C
  C81      1.0000 0.25000  0.25000  0.25000  Biso   1.000  C
  C82      1.0000 0.75000  0.75000  0.75000  Biso   1.000  C
  C83      1.0000 0.36613  0.36613  0.07281  Biso   1.000  C
  C84      1.0000 0.36613  0.36613  0.19493  Biso   1.000  C
  C85      1.0000 0.07281  0.19493  0.36613  Biso   1.000  C
  C86      1.0000 0.19493  0.07281  0.36613  Biso   1.000  C
  C87      1.0000 0.36613  0.07281  0.19493  Biso   1.000  C
  C88      1.0000 0.36613  0.19493  0.07281  Biso   1.000  C
  C89      1.0000 0.07281  0.36613  0.36613  Biso   1.000  C
  C90      1.0000 0.19493  0.36613  0.36613  Biso   1.000  C
  C91      1.0000 0.36613  0.19493  0.36613  Biso   1.000  C
  C92      1.0000 0.36613  0.07281  0.36613  Biso   1.000  C
  C93      1.0000 0.07281  0.36613  0.19493  Biso   1.000  C
  C94      1.0000 0.19493  0.36613  0.07281  Biso   1.000  C
  C95      1.0000 0.63387  0.63387  0.92719  Biso   1.000  C
  C96      1.0000 0.63387  0.63387  0.80507  Biso   1.000  C
  C97      1.0000 0.80507  0.92719  0.63387  Biso   1.000  C
  C98      1.0000 0.92719  0.80507  0.63387  Biso   1.000  C
  C99      1.0000 0.92719  0.63387  0.80507  Biso   1.000  C
  C100     1.0000 0.80507  0.63387  0.92719  Biso   1.000  C
  C101     1.0000 0.63387  0.92719  0.63387  Biso   1.000  C
  C102     1.0000 0.63387  0.80507  0.63387  Biso   1.000  C
  C103     1.0000 0.80507  0.63387  0.63387  Biso   1.000  C
  C104     1.0000 0.92719  0.63387  0.63387  Biso   1.000  C
  C105     1.0000 0.63387  0.92719  0.80507  Biso   1.000  C
  C106     1.0000 0.63387  0.80507  0.92719  Biso   1.000  C
  O1       1.0000 0.17150  0.96973  0.86813  Biso   1.000  O
  O2       1.0000 0.58697  0.38518  0.45272  Biso   1.000  O
  O3       1.0000 0.41347  0.55868  0.45272  Biso   1.000  O
  O4       1.0000 0.99800  0.14323  0.86813  Biso   1.000  O
  O5       1.0000 0.99780  0.96953  0.04180  Biso   1.000  O
  O6       1.0000 0.99793  0.96966  0.86793  Biso   1.000  O
  O7       1.0000 0.58717  0.55888  0.27906  Biso   1.000  O
  O8       1.0000 0.58704  0.55875  0.45293  Biso   1.000  O
  O9       1.0000 0.83608  0.33016  0.00885  Biso   1.000  O
  O10      1.0000 0.83298  0.11019  0.22174  Biso   1.000  O
  O11      1.0000 0.83968  0.32818  0.70779  Biso   1.000  O
  O12      1.0000 0.83918  0.10903  0.70252  Biso   1.000  O
  O13      1.0000 0.35757  0.10962  0.70958  Biso   1.000  O
  O14      1.0000 0.22653  0.72061  0.31201  Biso   1.000  O
  O15      1.0000 0.44651  0.72371  0.09912  Biso   1.000  O
  O16      1.0000 0.22850  0.71701  0.61307  Biso   1.000  O
  O17      1.0000 0.44767  0.71751  0.61834  Biso   1.000  O
  O18      1.0000 0.44707  0.19913  0.61128  Biso   1.000  O
  O19      1.0000 0.74889  0.19825  0.31201  Biso   1.000  O
  O20      1.0000 0.75200  0.41822  0.09912  Biso   1.000  O
  O21      1.0000 0.74529  0.20023  0.61307  Biso   1.000  O
  O22      1.0000 0.74580  0.41938  0.61834  Biso   1.000  O
  O23      1.0000 0.22741  0.41879  0.61128  Biso   1.000  O
  O24      1.0000 0.35845  0.80780  0.00885  Biso   1.000  O
  O25      1.0000 0.13847  0.80470  0.22174  Biso   1.000  O
  O26      1.0000 0.35648  0.81140  0.70779  Biso   1.000  O
  O27      1.0000 0.13730  0.81090  0.70252  Biso   1.000  O
  O28      1.0000 0.13790  0.32928  0.70958  Biso   1.000  O
  O29      1.0000 0.83737  0.80909  0.00816  Biso   1.000  O
  O30      1.0000 0.83467  0.80639  0.22562  Biso   1.000  O
  O31      1.0000 0.74760  0.71932  0.31270  Biso   1.000  O
  O32      1.0000 0.75030  0.72202  0.09524  Biso   1.000  O
  O33      1.0000 0.90374  0.15289  0.04737  Biso   1.000  O
  O34      1.0000 0.84522  0.20961  0.10748  Biso   1.000  O
  O35      1.0000 0.81926  0.30378  0.07086  Biso   1.000  O
  O36      1.0000 0.81746  0.17209  0.19626  Biso   1.000  O
  O37      1.0000 0.90415  0.15171  0.77208  Biso   1.000  O
  O38      1.0000 0.84853  0.20714  0.71545  Biso   1.000  O
  O39      1.0000 0.82088  0.30261  0.69037  Biso   1.000  O
  O40      1.0000 0.82047  0.17072  0.68699  Biso   1.000  O
  O41      1.0000 0.33140  0.17142  0.69017  Biso   1.000  O
  O42      1.0000 0.40381  0.65295  0.27349  Biso   1.000  O
  O43      1.0000 0.34709  0.71146  0.21338  Biso   1.000  O
  O44      1.0000 0.25290  0.73743  0.25000  Biso   1.000  O
  O45      1.0000 0.38461  0.73923  0.12460  Biso   1.000  O
  O46      1.0000 0.40499  0.65254  0.54878  Biso   1.000  O
  O47      1.0000 0.34956  0.70816  0.60541  Biso   1.000  O
  O48      1.0000 0.25407  0.73582  0.63049  Biso   1.000  O
  O49      1.0000 0.38598  0.73622  0.63387  Biso   1.000  O
  O50      1.0000 0.38528  0.22530  0.63069  Biso   1.000  O
  O51      1.0000 0.68124  0.37552  0.27349  Biso   1.000  O
  O52      1.0000 0.73975  0.31880  0.21338  Biso   1.000  O
  O53      1.0000 0.76571  0.22463  0.25000  Biso   1.000  O
  O54      1.0000 0.76752  0.35632  0.12460  Biso   1.000  O
  O55      1.0000 0.68082  0.37670  0.54878  Biso   1.000  O
  O56      1.0000 0.73644  0.32127  0.60541  Biso   1.000  O
  O57      1.0000 0.76410  0.22580  0.63049  Biso   1.000  O
  O58      1.0000 0.76450  0.35769  0.63387  Biso   1.000  O
  O59      1.0000 0.25358  0.35699  0.63069  Biso   1.000  O
  O60      1.0000 0.18116  0.87546  0.04737  Biso   1.000  O
  O61      1.0000 0.23788  0.81695  0.10748  Biso   1.000  O
  O62      1.0000 0.33208  0.79098  0.07086  Biso   1.000  O
  O63      1.0000 0.20036  0.78918  0.19626  Biso   1.000  O
  O64      1.0000 0.17999  0.87587  0.77208  Biso   1.000  O
  O65      1.0000 0.23542  0.82025  0.71545  Biso   1.000  O
  O66      1.0000 0.33090  0.79259  0.69037  Biso   1.000  O
  O67      1.0000 0.19900  0.79219  0.68699  Biso   1.000  O
  O68      1.0000 0.19970  0.30311  0.69017  Biso   1.000  O
  O69      1.0000 0.90205  0.87377  0.05394  Biso   1.000  O
  O70      1.0000 0.84622  0.81794  0.10669  Biso   1.000  O
  O71      1.0000 0.81976  0.79148  0.06986  Biso   1.000  O
  O72      1.0000 0.81736  0.78908  0.19825  Biso   1.000  O
  O73      1.0000 0.17710  0.14883  0.77726  Biso   1.000  O
  O74      1.0000 0.23700  0.20873  0.71555  Biso   1.000  O
  O75      1.0000 0.68293  0.65464  0.26692  Biso   1.000  O
  O76      1.0000 0.73875  0.71047  0.21417  Biso   1.000  O
  O77      1.0000 0.76522  0.73693  0.25100  Biso   1.000  O
  O78      1.0000 0.76761  0.73933  0.12261  Biso   1.000  O
  O79      1.0000 0.40788  0.37958  0.54360  Biso   1.000  O
  O80      1.0000 0.34797  0.31968  0.60531  Biso   1.000  O
  O81      1.0000 0.92374  0.06761  0.09066  Biso   1.000  O
  O82      1.0000 0.92613  0.19320  0.96506  Biso   1.000  O
  O83      1.0000 0.92346  0.06653  0.79726  Biso   1.000  O
  O84      1.0000 0.92564  0.19171  0.79448  Biso   1.000  O
  O85      1.0000 0.21929  0.06623  0.79677  Biso   1.000  O
  O86      1.0000 0.48909  0.63295  0.23020  Biso   1.000  O
  O87      1.0000 0.36351  0.63055  0.35580  Biso   1.000  O
  O88      1.0000 0.49017  0.63323  0.52360  Biso   1.000  O
  O89      1.0000 0.36499  0.63104  0.52638  Biso   1.000  O
  O90      1.0000 0.49047  0.33739  0.52409  Biso   1.000  O
  O91      1.0000 0.66124  0.46080  0.23020  Biso   1.000  O
  O92      1.0000 0.65884  0.33521  0.35580  Biso   1.000  O
  O93      1.0000 0.66152  0.46188  0.52360  Biso   1.000  O
  O94      1.0000 0.65933  0.33670  0.52638  Biso   1.000  O
  O95      1.0000 0.36569  0.46218  0.52409  Biso   1.000  O
  O96      1.0000 0.09589  0.89546  0.09066  Biso   1.000  O
  O97      1.0000 0.22147  0.89786  0.96506  Biso   1.000  O
  O98      1.0000 0.09481  0.89518  0.79726  Biso   1.000  O
  O99      1.0000 0.21999  0.89737  0.79448  Biso   1.000  O
  O100     1.0000 0.09451  0.19102  0.79677  Biso   1.000  O
  O101     1.0000 0.04117  0.01289  0.91182  Biso   1.000  O
  O102     1.0000 0.92513  0.89685  0.08967  Biso   1.000  O
  O103     1.0000 0.92355  0.89527  0.96974  Biso   1.000  O
  O104     1.0000 0.54381  0.51552  0.40904  Biso   1.000  O
  O105     1.0000 0.65984  0.63156  0.23119  Biso   1.000  O
  O106     1.0000 0.66143  0.63314  0.35112  Biso   1.000  O
