data_image0
_cell_length_a       18.2359
_cell_length_b       18.2359
_cell_length_c       18.2359
_cell_angle_alpha    60
_cell_angle_beta     60
_cell_angle_gamma    60

_symmetry_space_group_name_H-M    "P 1"
_symmetry_int_tables_number       1

loop_
  _symmetry_equiv_pos_as_xyz
  'x, y, z'

loop_
  _atom_site_label
  _atom_site_occupancy
  _atom_site_fract_x
  _atom_site_fract_y
  _atom_site_fract_z
  _atom_site_thermal_displace_type
  _atom_site_B_iso_or_equiv
  _atom_site_type_symbol
  Zn1      1.0000 0.29356  0.29357  0.11930  Biso   1.000  Zn
  Zn2      1.0000 0.29356  0.29357  0.29357  Biso   1.000  Zn
  Zn3      1.0000 0.11929  0.29357  0.29357  Biso   1.000  Zn
  Zn4      1.0000 0.29356  0.11930  0.29357  Biso   1.000  Zn
  Zn5      1.0000 0.70644  0.70643  0.88070  Biso   1.000  Zn
  Zn6      1.0000 0.70644  0.70643  0.70643  Biso   1.000  Zn
  Zn7      1.0000 0.70644  0.88070  0.70643  Biso   1.000  Zn
  Zn8      1.0000 0.88071  0.70643  0.70643  Biso   1.000  Zn
  H1       1.0000 0.45600  0.45600  0.93640  Biso   1.000  H
  H2       1.0000 0.45600  0.45600  0.15160  Biso   1.000  H
  H3       1.0000 0.93640  0.15160  0.45600  Biso   1.000  H
  H4       1.0000 0.15160  0.93640  0.45600  Biso   1.000  H
  H5       1.0000 0.45600  0.93640  0.15160  Biso   1.000  H
  H6       1.0000 0.45600  0.15160  0.93640  Biso   1.000  H
  H7       1.0000 0.93640  0.45600  0.45600  Biso   1.000  H
  H8       1.0000 0.15160  0.45600  0.45600  Biso   1.000  H
  H9       1.0000 0.45600  0.15160  0.45600  Biso   1.000  H
  H10      1.0000 0.45600  0.93640  0.45600  Biso   1.000  H
  H11      1.0000 0.93640  0.45600  0.15160  Biso   1.000  H
  H12      1.0000 0.15160  0.45600  0.93640  Biso   1.000  H
  H13      1.0000 0.54400  0.54400  0.06360  Biso   1.000  H
  H14      1.0000 0.54400  0.54400  0.84840  Biso   1.000  H
  H15      1.0000 0.84840  0.06360  0.54400  Biso   1.000  H
  H16      1.0000 0.06360  0.84840  0.54400  Biso   1.000  H
  H17      1.0000 0.06360  0.54400  0.84840  Biso   1.000  H
  H18      1.0000 0.84840  0.54400  0.06360  Biso   1.000  H
  H19      1.0000 0.54400  0.06360  0.54400  Biso   1.000  H
  H20      1.0000 0.54400  0.84840  0.54400  Biso   1.000  H
  H21      1.0000 0.84840  0.54400  0.54400  Biso   1.000  H
  H22      1.0000 0.06360  0.54400  0.54400  Biso   1.000  H
  H23      1.0000 0.54400  0.06360  0.84840  Biso   1.000  H
  H24      1.0000 0.54400  0.84840  0.06360  Biso   1.000  H
  C1       1.0000 0.47360  0.47360  0.96320  Biso   1.000  C
  C2       1.0000 0.47360  0.47360  0.08960  Biso   1.000  C
  C3       1.0000 0.96320  0.08960  0.47360  Biso   1.000  C
  C4       1.0000 0.08960  0.96320  0.47360  Biso   1.000  C
  C5       1.0000 0.47360  0.96320  0.08960  Biso   1.000  C
  C6       1.0000 0.47360  0.08960  0.96320  Biso   1.000  C
  C7       1.0000 0.96320  0.47360  0.47360  Biso   1.000  C
  C8       1.0000 0.08960  0.47360  0.47360  Biso   1.000  C
  C9       1.0000 0.47360  0.08960  0.47360  Biso   1.000  C
  C10      1.0000 0.47360  0.96320  0.47360  Biso   1.000  C
  C11      1.0000 0.96320  0.47360  0.08960  Biso   1.000  C
  C12      1.0000 0.08960  0.47360  0.96320  Biso   1.000  C
  C13      1.0000 0.52640  0.52640  0.03680  Biso   1.000  C
  C14      1.0000 0.52640  0.52640  0.91040  Biso   1.000  C
  C15      1.0000 0.91040  0.03680  0.52640  Biso   1.000  C
  C16      1.0000 0.03680  0.91040  0.52640  Biso   1.000  C
  C17      1.0000 0.03680  0.52640  0.91040  Biso   1.000  C
  C18      1.0000 0.91040  0.52640  0.03680  Biso   1.000  C
  C19      1.0000 0.52640  0.03680  0.52640  Biso   1.000  C
  C20      1.0000 0.52640  0.91040  0.52640  Biso   1.000  C
  C21      1.0000 0.91040  0.52640  0.52640  Biso   1.000  C
  C22      1.0000 0.03680  0.52640  0.52640  Biso   1.000  C
  C23      1.0000 0.52640  0.03680  0.91040  Biso   1.000  C
  C24      1.0000 0.52640  0.91040  0.03680  Biso   1.000  C
  C25      1.0000 0.38860  0.38860  0.11140  Biso   1.000  C
  C26      1.0000 0.44630  0.44630  0.05370  Biso   1.000  C
  C27      1.0000 0.11140  0.11140  0.38860  Biso   1.000  C
  C28      1.0000 0.05370  0.05370  0.44630  Biso   1.000  C
  C29      1.0000 0.38860  0.11140  0.11140  Biso   1.000  C
  C30      1.0000 0.44630  0.05370  0.05370  Biso   1.000  C
  C31      1.0000 0.11140  0.38860  0.38860  Biso   1.000  C
  C32      1.0000 0.05370  0.44630  0.44630  Biso   1.000  C
  C33      1.0000 0.38860  0.11140  0.38860  Biso   1.000  C
  C34      1.0000 0.44630  0.05370  0.44630  Biso   1.000  C
  C35      1.0000 0.11140  0.38860  0.11140  Biso   1.000  C
  C36      1.0000 0.05370  0.44630  0.05370  Biso   1.000  C
  C37      1.0000 0.61140  0.61140  0.88860  Biso   1.000  C
  C38      1.0000 0.55370  0.55370  0.94630  Biso   1.000  C
  C39      1.0000 0.88860  0.88860  0.61140  Biso   1.000  C
  C40      1.0000 0.94630  0.94630  0.55370  Biso   1.000  C
  C41      1.0000 0.88860  0.61140  0.88860  Biso   1.000  C
  C42      1.0000 0.94630  0.55370  0.94630  Biso   1.000  C
  C43      1.0000 0.61140  0.88860  0.61140  Biso   1.000  C
  C44      1.0000 0.55370  0.94630  0.55370  Biso   1.000  C
  C45      1.0000 0.88860  0.61140  0.61140  Biso   1.000  C
  C46      1.0000 0.94630  0.55370  0.55370  Biso   1.000  C
  C47      1.0000 0.61140  0.88860  0.88860  Biso   1.000  C
  C48      1.0000 0.55370  0.94630  0.94630  Biso   1.000  C
  O1       1.0000 0.25000  0.25000  0.25000  Biso   1.000  O
  O2       1.0000 0.75000  0.75000  0.75000  Biso   1.000  O
  O3       1.0000 0.36605  0.36605  0.07323  Biso   1.000  O
  O4       1.0000 0.36605  0.36605  0.19467  Biso   1.000  O
  O5       1.0000 0.07323  0.19467  0.36605  Biso   1.000  O
  O6       1.0000 0.19467  0.07323  0.36605  Biso   1.000  O
  O7       1.0000 0.36605  0.07323  0.19467  Biso   1.000  O
  O8       1.0000 0.36605  0.19467  0.07323  Biso   1.000  O
  O9       1.0000 0.07323  0.36605  0.36605  Biso   1.000  O
  O10      1.0000 0.19467  0.36605  0.36605  Biso   1.000  O
  O11      1.0000 0.36605  0.19467  0.36605  Biso   1.000  O
  O12      1.0000 0.36605  0.07323  0.36605  Biso   1.000  O
  O13      1.0000 0.07323  0.36605  0.19467  Biso   1.000  O
  O14      1.0000 0.19467  0.36605  0.07323  Biso   1.000  O
  O15      1.0000 0.63395  0.63395  0.92677  Biso   1.000  O
  O16      1.0000 0.63395  0.63395  0.80533  Biso   1.000  O
  O17      1.0000 0.80533  0.92677  0.63395  Biso   1.000  O
  O18      1.0000 0.92677  0.80533  0.63395  Biso   1.000  O
  O19      1.0000 0.92677  0.63395  0.80533  Biso   1.000  O
  O20      1.0000 0.80533  0.63395  0.92677  Biso   1.000  O
  O21      1.0000 0.63395  0.92677  0.63395  Biso   1.000  O
  O22      1.0000 0.63395  0.80533  0.63395  Biso   1.000  O
  O23      1.0000 0.80533  0.63395  0.63395  Biso   1.000  O
  O24      1.0000 0.92677  0.63395  0.63395  Biso   1.000  O
  O25      1.0000 0.63395  0.92677  0.80533  Biso   1.000  O
  O26      1.0000 0.63395  0.80533  0.92677  Biso   1.000  O
  Zn9      1.0000 0.52385  0.16446  0.65092  Biso   1.000  Zn
  Zn10     1.0000 0.52385  0.33956  0.65092  Biso   1.000  Zn
  Zn11     1.0000 0.34875  0.33956  0.65092  Biso   1.000  Zn
  Zn12     1.0000 0.52385  0.33956  0.47582  Biso   1.000  Zn
  Zn13     1.0000 0.94849  0.74795  0.05931  Biso   1.000  Zn
  Zn14     1.0000 0.94849  0.92305  0.05931  Biso   1.000  Zn
  Zn15     1.0000 0.12359  0.74795  0.05931  Biso   1.000  Zn
  Zn16     1.0000 0.94849  0.74795  0.23441  Biso   1.000  Zn
  H25      1.0000 0.38521  0.97752  0.81371  Biso   1.000  H
  H26      1.0000 0.68664  0.50235  0.51228  Biso   1.000  H
  H27      1.0000 0.16181  0.20092  0.81371  Biso   1.000  H
  H28      1.0000 0.68664  0.50235  0.28888  Biso   1.000  H
  H29      1.0000 0.16181  0.50235  0.51228  Biso   1.000  H
  H30      1.0000 0.68664  0.20092  0.81371  Biso   1.000  H
  H31      1.0000 0.38521  0.50235  0.28888  Biso   1.000  H
  H32      1.0000 0.68664  0.97752  0.81371  Biso   1.000  H
  H33      1.0000 0.68664  0.20092  0.28888  Biso   1.000  H
  H34      1.0000 0.38521  0.50235  0.81371  Biso   1.000  H
  H35      1.0000 0.68664  0.97752  0.51228  Biso   1.000  H
  H36      1.0000 0.16181  0.50235  0.81371  Biso   1.000  H
  H37      1.0000 0.08712  0.58516  0.89652  Biso   1.000  H
  H38      1.0000 0.78569  0.10999  0.19795  Biso   1.000  H
  H39      1.0000 0.31052  0.58516  0.89652  Biso   1.000  H
  H40      1.0000 0.78569  0.88659  0.42135  Biso   1.000  H
  H41      1.0000 0.31052  0.58516  0.19795  Biso   1.000  H
  H42      1.0000 0.78569  0.10999  0.89652  Biso   1.000  H
  H43      1.0000 0.08712  0.58516  0.42135  Biso   1.000  H
  H44      1.0000 0.78569  0.88659  0.89652  Biso   1.000  H
  H45      1.0000 0.78569  0.58516  0.42135  Biso   1.000  H
  H46      1.0000 0.08712  0.10999  0.89652  Biso   1.000  H
  H47      1.0000 0.78569  0.58516  0.19795  Biso   1.000  H
  H48      1.0000 0.31052  0.88659  0.89652  Biso   1.000  H
  C49      1.0000 0.32149  0.00429  0.83219  Biso   1.000  C
  C50      1.0000 0.70512  0.52083  0.44856  Biso   1.000  C
  C51      1.0000 0.18858  0.13720  0.83219  Biso   1.000  C
  C52      1.0000 0.70512  0.52083  0.31565  Biso   1.000  C
  C53      1.0000 0.18858  0.52083  0.44856  Biso   1.000  C
  C54      1.0000 0.70512  0.13720  0.83219  Biso   1.000  C
  C55      1.0000 0.32149  0.52083  0.31565  Biso   1.000  C
  C56      1.0000 0.70512  0.00429  0.83219  Biso   1.000  C
  C57      1.0000 0.70512  0.13720  0.31565  Biso   1.000  C
  C58      1.0000 0.32149  0.52083  0.83219  Biso   1.000  C
  C59      1.0000 0.70512  0.00429  0.44856  Biso   1.000  C
  C60      1.0000 0.18858  0.52083  0.83219  Biso   1.000  C
  C61      1.0000 0.15085  0.56668  0.87804  Biso   1.000  C
  C62      1.0000 0.76722  0.08322  0.26167  Biso   1.000  C
  C63      1.0000 0.28376  0.56668  0.87804  Biso   1.000  C
  C64      1.0000 0.76722  0.95031  0.39458  Biso   1.000  C
  C65      1.0000 0.28376  0.56668  0.26167  Biso   1.000  C
  C66      1.0000 0.76722  0.08322  0.87804  Biso   1.000  C
  C67      1.0000 0.15085  0.56668  0.39458  Biso   1.000  C
  C68      1.0000 0.76722  0.95031  0.87804  Biso   1.000  C
  C69      1.0000 0.76722  0.56668  0.39458  Biso   1.000  C
  C70      1.0000 0.15085  0.08322  0.87804  Biso   1.000  C
  C71      1.0000 0.76722  0.56668  0.26167  Biso   1.000  C
  C72      1.0000 0.28376  0.95031  0.87804  Biso   1.000  C
  C73      1.0000 0.34049  0.15620  0.74673  Biso   1.000  C
  C74      1.0000 0.28221  0.09792  0.80501  Biso   1.000  C
  C75      1.0000 0.61966  0.43537  0.46756  Biso   1.000  C
  C76      1.0000 0.67794  0.49365  0.40928  Biso   1.000  C
  C77      1.0000 0.34049  0.43537  0.46756  Biso   1.000  C
  C78      1.0000 0.28221  0.49365  0.40928  Biso   1.000  C
  C79      1.0000 0.61966  0.15620  0.74673  Biso   1.000  C
  C80      1.0000 0.67794  0.09792  0.80501  Biso   1.000  C
  C81      1.0000 0.61966  0.15620  0.46756  Biso   1.000  C
  C82      1.0000 0.67794  0.09792  0.40928  Biso   1.000  C
  C83      1.0000 0.34049  0.43537  0.74673  Biso   1.000  C
  C84      1.0000 0.28221  0.49365  0.80501  Biso   1.000  C
  C85      1.0000 0.13184  0.65214  0.96350  Biso   1.000  C
  C86      1.0000 0.19012  0.59386  0.90522  Biso   1.000  C
  C87      1.0000 0.85267  0.93131  0.24267  Biso   1.000  C
  C88      1.0000 0.79439  0.98959  0.30095  Biso   1.000  C
  C89      1.0000 0.13184  0.65214  0.24267  Biso   1.000  C
  C90      1.0000 0.19012  0.59386  0.30095  Biso   1.000  C
  C91      1.0000 0.85267  0.93131  0.96350  Biso   1.000  C
  C92      1.0000 0.79439  0.98959  0.90522  Biso   1.000  C
  C93      1.0000 0.85267  0.65214  0.24267  Biso   1.000  C
  C94      1.0000 0.79439  0.59386  0.30095  Biso   1.000  C
  C95      1.0000 0.13184  0.93131  0.96350  Biso   1.000  C
  C96      1.0000 0.19012  0.98959  0.90522  Biso   1.000  C
  O27      1.0000 0.48008  0.29579  0.60715  Biso   1.000  O
  O28      1.0000 0.99226  0.79172  0.10308  Biso   1.000  O
  O29      1.0000 0.42473  0.11668  0.72437  Biso   1.000  O
  O30      1.0000 0.59730  0.41301  0.55180  Biso   1.000  O
  O31      1.0000 0.30097  0.24044  0.72437  Biso   1.000  O
  O32      1.0000 0.59730  0.41301  0.42804  Biso   1.000  O
  O33      1.0000 0.30097  0.41301  0.55180  Biso   1.000  O
  O34      1.0000 0.59730  0.24044  0.72437  Biso   1.000  O
  O35      1.0000 0.42473  0.41301  0.42804  Biso   1.000  O
  O36      1.0000 0.59730  0.11668  0.72437  Biso   1.000  O
  O37      1.0000 0.59730  0.24044  0.42804  Biso   1.000  O
  O38      1.0000 0.42473  0.41301  0.72437  Biso   1.000  O
  O39      1.0000 0.59730  0.11668  0.55180  Biso   1.000  O
  O40      1.0000 0.30097  0.41301  0.72437  Biso   1.000  O
  O41      1.0000 0.04760  0.67450  0.98586  Biso   1.000  O
  O42      1.0000 0.87503  0.97083  0.15843  Biso   1.000  O
  O43      1.0000 0.17136  0.67450  0.98586  Biso   1.000  O
  O44      1.0000 0.87503  0.84707  0.28219  Biso   1.000  O
  O45      1.0000 0.17136  0.67450  0.15843  Biso   1.000  O
  O46      1.0000 0.87503  0.97083  0.98586  Biso   1.000  O
  O47      1.0000 0.04760  0.67450  0.28219  Biso   1.000  O
  O48      1.0000 0.87503  0.84707  0.98586  Biso   1.000  O
  O49      1.0000 0.87503  0.67450  0.28219  Biso   1.000  O
  O50      1.0000 0.04760  0.97083  0.98586  Biso   1.000  O
  O51      1.0000 0.87503  0.67450  0.15843  Biso   1.000  O
  O52      1.0000 0.17136  0.84707  0.98586  Biso   1.000  O
