data_image0
_cell_length_a       18.2507
_cell_length_b       18.2507
_cell_length_c       18.2507
_cell_angle_alpha    60
_cell_angle_beta     60
_cell_angle_gamma    60

_symmetry_space_group_name_H-M    "P 1"
_symmetry_int_tables_number       1

loop_
  _symmetry_equiv_pos_as_xyz
  'x, y, z'

loop_
  _atom_site_label
  _atom_site_occupancy
  _atom_site_fract_x
  _atom_site_fract_y
  _atom_site_fract_z
  _atom_site_thermal_displace_type
  _atom_site_B_iso_or_equiv
  _atom_site_type_symbol
  C1       1.0000 0.29354  0.29353  0.11940  Biso   1.000  C
  C2       1.0000 0.29354  0.29353  0.29353  Biso   1.000  C
  C3       1.0000 0.11941  0.29353  0.29353  Biso   1.000  C
  C4       1.0000 0.29354  0.11940  0.29353  Biso   1.000  C
  C5       1.0000 0.70646  0.70647  0.88060  Biso   1.000  C
  C6       1.0000 0.70646  0.70647  0.70647  Biso   1.000  C
  C7       1.0000 0.70646  0.88060  0.70647  Biso   1.000  C
  C8       1.0000 0.88059  0.70647  0.70647  Biso   1.000  C
  C9       1.0000 0.45580  0.45580  0.93620  Biso   1.000  C
  C10      1.0000 0.45580  0.45580  0.15220  Biso   1.000  C
  C11      1.0000 0.93620  0.15220  0.45580  Biso   1.000  C
  C12      1.0000 0.15220  0.93620  0.45580  Biso   1.000  C
  C13      1.0000 0.45580  0.93620  0.15220  Biso   1.000  C
  C14      1.0000 0.45580  0.15220  0.93620  Biso   1.000  C
  C15      1.0000 0.93620  0.45580  0.45580  Biso   1.000  C
  C16      1.0000 0.15220  0.45580  0.45580  Biso   1.000  C
  C17      1.0000 0.45580  0.15220  0.45580  Biso   1.000  C
  C18      1.0000 0.45580  0.93620  0.45580  Biso   1.000  C
  C19      1.0000 0.93620  0.45580  0.15220  Biso   1.000  C
  C20      1.0000 0.15220  0.45580  0.93620  Biso   1.000  C
  C21      1.0000 0.54420  0.54420  0.06380  Biso   1.000  C
  C22      1.0000 0.54420  0.54420  0.84780  Biso   1.000  C
  C23      1.0000 0.84780  0.06380  0.54420  Biso   1.000  C
  C24      1.0000 0.06380  0.84780  0.54420  Biso   1.000  C
  C25      1.0000 0.06380  0.54420  0.84780  Biso   1.000  C
  C26      1.0000 0.84780  0.54420  0.06380  Biso   1.000  C
  C27      1.0000 0.54420  0.06380  0.54420  Biso   1.000  C
  C28      1.0000 0.54420  0.84780  0.54420  Biso   1.000  C
  C29      1.0000 0.84780  0.54420  0.54420  Biso   1.000  C
  C30      1.0000 0.06380  0.54420  0.54420  Biso   1.000  C
  C31      1.0000 0.54420  0.06380  0.84780  Biso   1.000  C
  C32      1.0000 0.54420  0.84780  0.06380  Biso   1.000  C
  C33      1.0000 0.47349  0.47349  0.96297  Biso   1.000  C
  C34      1.0000 0.47349  0.47349  0.09005  Biso   1.000  C
  C35      1.0000 0.96297  0.09005  0.47349  Biso   1.000  C
  C36      1.0000 0.09005  0.96297  0.47349  Biso   1.000  C
  C37      1.0000 0.47349  0.96297  0.09005  Biso   1.000  C
  C38      1.0000 0.47349  0.09005  0.96297  Biso   1.000  C
  C39      1.0000 0.96297  0.47349  0.47349  Biso   1.000  C
  C40      1.0000 0.09005  0.47349  0.47349  Biso   1.000  C
  C41      1.0000 0.47349  0.09005  0.47349  Biso   1.000  C
  C42      1.0000 0.47349  0.96297  0.47349  Biso   1.000  C
  C43      1.0000 0.96297  0.47349  0.09005  Biso   1.000  C
  C44      1.0000 0.09005  0.47349  0.96297  Biso   1.000  C
  C45      1.0000 0.52651  0.52651  0.03703  Biso   1.000  C
  C46      1.0000 0.52651  0.52651  0.90995  Biso   1.000  C
  C47      1.0000 0.90995  0.03703  0.52651  Biso   1.000  C
  C48      1.0000 0.03703  0.90995  0.52651  Biso   1.000  C
  C49      1.0000 0.03703  0.52651  0.90995  Biso   1.000  C
  C50      1.0000 0.90995  0.52651  0.03703  Biso   1.000  C
  C51      1.0000 0.52651  0.03703  0.52651  Biso   1.000  C
  C52      1.0000 0.52651  0.90995  0.52651  Biso   1.000  C
  C53      1.0000 0.90995  0.52651  0.52651  Biso   1.000  C
  C54      1.0000 0.03703  0.52651  0.52651  Biso   1.000  C
  C55      1.0000 0.52651  0.03703  0.90995  Biso   1.000  C
  C56      1.0000 0.52651  0.90995  0.03703  Biso   1.000  C
  C57      1.0000 0.38859  0.38859  0.11141  Biso   1.000  C
  C58      1.0000 0.44630  0.44630  0.05370  Biso   1.000  C
  C59      1.0000 0.11141  0.11141  0.38859  Biso   1.000  C
  C60      1.0000 0.05370  0.05370  0.44630  Biso   1.000  C
  C61      1.0000 0.38859  0.11141  0.11141  Biso   1.000  C
  C62      1.0000 0.44630  0.05370  0.05370  Biso   1.000  C
  C63      1.0000 0.11141  0.38859  0.38859  Biso   1.000  C
  C64      1.0000 0.05370  0.44630  0.44630  Biso   1.000  C
  C65      1.0000 0.38859  0.11141  0.38859  Biso   1.000  C
  C66      1.0000 0.44630  0.05370  0.44630  Biso   1.000  C
  C67      1.0000 0.11141  0.38859  0.11141  Biso   1.000  C
  C68      1.0000 0.05370  0.44630  0.05370  Biso   1.000  C
  C69      1.0000 0.61141  0.61141  0.88859  Biso   1.000  C
  C70      1.0000 0.55370  0.55370  0.94630  Biso   1.000  C
  C71      1.0000 0.88859  0.88859  0.61141  Biso   1.000  C
  C72      1.0000 0.94630  0.94630  0.55370  Biso   1.000  C
  C73      1.0000 0.88859  0.61141  0.88859  Biso   1.000  C
  C74      1.0000 0.94630  0.55370  0.94630  Biso   1.000  C
  C75      1.0000 0.61141  0.88859  0.61141  Biso   1.000  C
  C76      1.0000 0.55370  0.94630  0.55370  Biso   1.000  C
  C77      1.0000 0.88859  0.61141  0.61141  Biso   1.000  C
  C78      1.0000 0.94630  0.55370  0.55370  Biso   1.000  C
  C79      1.0000 0.61141  0.88859  0.88859  Biso   1.000  C
  C80      1.0000 0.55370  0.94630  0.94630  Biso   1.000  C
  C81      1.0000 0.25000  0.25000  0.25000  Biso   1.000  C
  C82      1.0000 0.75000  0.75000  0.75000  Biso   1.000  C
  C83      1.0000 0.36605  0.36605  0.07321  Biso   1.000  C
  C84      1.0000 0.36605  0.36605  0.19469  Biso   1.000  C
  C85      1.0000 0.07321  0.19469  0.36605  Biso   1.000  C
  C86      1.0000 0.19469  0.07321  0.36605  Biso   1.000  C
  C87      1.0000 0.36605  0.07321  0.19469  Biso   1.000  C
  C88      1.0000 0.36605  0.19469  0.07321  Biso   1.000  C
  C89      1.0000 0.07321  0.36605  0.36605  Biso   1.000  C
  C90      1.0000 0.19469  0.36605  0.36605  Biso   1.000  C
  C91      1.0000 0.36605  0.19469  0.36605  Biso   1.000  C
  C92      1.0000 0.36605  0.07321  0.36605  Biso   1.000  C
  C93      1.0000 0.07321  0.36605  0.19469  Biso   1.000  C
  C94      1.0000 0.19469  0.36605  0.07321  Biso   1.000  C
  C95      1.0000 0.63395  0.63395  0.92679  Biso   1.000  C
  C96      1.0000 0.63395  0.63395  0.80531  Biso   1.000  C
  C97      1.0000 0.80531  0.92679  0.63395  Biso   1.000  C
  C98      1.0000 0.92679  0.80531  0.63395  Biso   1.000  C
  C99      1.0000 0.92679  0.63395  0.80531  Biso   1.000  C
  C100     1.0000 0.80531  0.63395  0.92679  Biso   1.000  C
  C101     1.0000 0.63395  0.92679  0.63395  Biso   1.000  C
  C102     1.0000 0.63395  0.80531  0.63395  Biso   1.000  C
  C103     1.0000 0.80531  0.63395  0.63395  Biso   1.000  C
  C104     1.0000 0.92679  0.63395  0.63395  Biso   1.000  C
  C105     1.0000 0.63395  0.92679  0.80531  Biso   1.000  C
  C106     1.0000 0.63395  0.80531  0.92679  Biso   1.000  C
  O1       1.0000 0.57802  0.42196  0.42194  Biso   1.000  O
  O2       1.0000 0.13937  0.84411  0.01623  Biso   1.000  O
  O3       1.0000 0.13937  0.01644  0.01623  Biso   1.000  O
  O4       1.0000 0.57802  0.59429  0.42194  Biso   1.000  O
  O5       1.0000 0.57798  0.42188  0.59448  Biso   1.000  O
  O6       1.0000 0.75012  0.42214  0.42181  Biso   1.000  O
  O7       1.0000 0.13941  0.01652  0.84369  Biso   1.000  O
  O8       1.0000 0.96727  0.01626  0.01636  Biso   1.000  O
  O9       1.0000 0.39841  0.26644  0.79252  Biso   1.000  O
  O10      1.0000 0.39747  0.26797  0.55730  Biso   1.000  O
  O11      1.0000 0.39460  0.55736  0.26876  Biso   1.000  O
  O12      1.0000 0.31898  0.87964  0.64565  Biso   1.000  O
  O13      1.0000 0.31992  0.64493  0.88086  Biso   1.000  O
  O14      1.0000 0.32279  0.64294  0.16940  Biso   1.000  O
  O15      1.0000 0.31898  0.17197  0.64565  Biso   1.000  O
  O16      1.0000 0.31992  0.17043  0.88086  Biso   1.000  O
  O17      1.0000 0.32279  0.88104  0.16940  Biso   1.000  O
  O18      1.0000 0.39841  0.55877  0.79252  Biso   1.000  O
  O19      1.0000 0.39747  0.79348  0.55730  Biso   1.000  O
  O20      1.0000 0.39460  0.79546  0.26876  Biso   1.000  O
  O21      1.0000 0.49147  0.33446  0.59892  Biso   1.000  O
  O22      1.0000 0.42793  0.27042  0.65775  Biso   1.000  O
  O23      1.0000 0.38287  0.24519  0.76635  Biso   1.000  O
  O24      1.0000 0.38291  0.24662  0.62007  Biso   1.000  O
  O25      1.0000 0.75103  0.33506  0.33517  Biso   1.000  O
  O26      1.0000 0.38132  0.62002  0.24525  Biso   1.000  O
  O27      1.0000 0.22592  0.84702  0.83925  Biso   1.000  O
  O28      1.0000 0.28946  0.77827  0.78042  Biso   1.000  O
  O29      1.0000 0.33452  0.81668  0.67181  Biso   1.000  O
  O30      1.0000 0.33448  0.67178  0.81810  Biso   1.000  O
  O31      1.0000 0.96636  0.84347  0.10300  Biso   1.000  O
  O32      1.0000 0.33607  0.66881  0.19292  Biso   1.000  O
  O33      1.0000 0.22592  0.10394  0.83925  Biso   1.000  O
  O34      1.0000 0.28946  0.16798  0.78042  Biso   1.000  O
  O35      1.0000 0.33452  0.19321  0.67181  Biso   1.000  O
  O36      1.0000 0.33448  0.19178  0.81810  Biso   1.000  O
  O37      1.0000 0.96636  0.10334  0.10300  Biso   1.000  O
  O38      1.0000 0.33607  0.81838  0.19292  Biso   1.000  O
  O39      1.0000 0.49147  0.59138  0.59892  Biso   1.000  O
  O40      1.0000 0.42793  0.66013  0.65775  Biso   1.000  O
  O41      1.0000 0.38287  0.62172  0.76635  Biso   1.000  O
  O42      1.0000 0.38291  0.76662  0.62007  Biso   1.000  O
  O43      1.0000 0.75103  0.59494  0.33517  Biso   1.000  O
  O44      1.0000 0.38132  0.76959  0.24525  Biso   1.000  O
  O45      1.0000 0.74908  0.33417  0.59882  Biso   1.000  O
  O46      1.0000 0.48811  0.59602  0.33605  Biso   1.000  O
  O47      1.0000 0.42771  0.66035  0.26778  Biso   1.000  O
  O48      1.0000 0.96831  0.10424  0.83935  Biso   1.000  O
  O49      1.0000 0.22928  0.84239  0.10211  Biso   1.000  O
  O50      1.0000 0.28968  0.77805  0.17039  Biso   1.000  O
  O51      1.0000 0.50878  0.35059  0.64240  Biso   1.000  O
  O52      1.0000 0.50681  0.34981  0.51687  Biso   1.000  O
  O53      1.0000 0.79982  0.35041  0.35130  Biso   1.000  O
  O54      1.0000 0.67067  0.35021  0.35120  Biso   1.000  O
  O55      1.0000 0.50759  0.51516  0.34963  Biso   1.000  O
  O56      1.0000 0.20861  0.92394  0.79577  Biso   1.000  O
  O57      1.0000 0.21058  0.79567  0.92130  Biso   1.000  O
  O58      1.0000 0.91757  0.92373  0.08687  Biso   1.000  O
  O59      1.0000 0.04672  0.79429  0.08696  Biso   1.000  O
  O60      1.0000 0.20980  0.79458  0.08854  Biso   1.000  O
  O61      1.0000 0.20861  0.08781  0.79577  Biso   1.000  O
  O62      1.0000 0.21058  0.08859  0.92130  Biso   1.000  O
  O63      1.0000 0.91757  0.08800  0.08687  Biso   1.000  O
  O64      1.0000 0.04672  0.08819  0.08696  Biso   1.000  O
  O65      1.0000 0.20980  0.92324  0.08854  Biso   1.000  O
  O66      1.0000 0.50878  0.51446  0.64240  Biso   1.000  O
  O67      1.0000 0.50681  0.64273  0.51687  Biso   1.000  O
  O68      1.0000 0.79982  0.51467  0.35130  Biso   1.000  O
  O69      1.0000 0.67067  0.64411  0.35120  Biso   1.000  O
  O70      1.0000 0.50759  0.64382  0.34963  Biso   1.000  O
  O71      1.0000 0.61963  0.46637  0.46385  Biso   1.000  O
  O72      1.0000 0.67098  0.35069  0.64388  Biso   1.000  O
  O73      1.0000 0.79953  0.35079  0.51510  Biso   1.000  O
  O74      1.0000 0.09776  0.97203  0.97432  Biso   1.000  O
  O75      1.0000 0.04641  0.08772  0.79429  Biso   1.000  O
  O76      1.0000 0.91786  0.08761  0.92307  Biso   1.000  O
