data_image0
_cell_length_a       18.2507
_cell_length_b       18.2507
_cell_length_c       18.2507
_cell_angle_alpha    60
_cell_angle_beta     60
_cell_angle_gamma    60

_symmetry_space_group_name_H-M    "P 1"
_symmetry_int_tables_number       1

loop_
  _symmetry_equiv_pos_as_xyz
  'x, y, z'

loop_
  _atom_site_label
  _atom_site_occupancy
  _atom_site_fract_x
  _atom_site_fract_y
  _atom_site_fract_z
  _atom_site_thermal_displace_type
  _atom_site_B_iso_or_equiv
  _atom_site_type_symbol
  Zn1      1.0000 0.29354  0.29353  0.11940  Biso   1.000  Zn
  Zn2      1.0000 0.29354  0.29353  0.29353  Biso   1.000  Zn
  Zn3      1.0000 0.11941  0.29353  0.29353  Biso   1.000  Zn
  Zn4      1.0000 0.29354  0.11940  0.29353  Biso   1.000  Zn
  Zn5      1.0000 0.70646  0.70647  0.88060  Biso   1.000  Zn
  Zn6      1.0000 0.70646  0.70647  0.70647  Biso   1.000  Zn
  Zn7      1.0000 0.70646  0.88060  0.70647  Biso   1.000  Zn
  Zn8      1.0000 0.88059  0.70647  0.70647  Biso   1.000  Zn
  H1       1.0000 0.45580  0.45580  0.93620  Biso   1.000  H
  H2       1.0000 0.45580  0.45580  0.15220  Biso   1.000  H
  H3       1.0000 0.93620  0.15220  0.45580  Biso   1.000  H
  H4       1.0000 0.15220  0.93620  0.45580  Biso   1.000  H
  H5       1.0000 0.45580  0.93620  0.15220  Biso   1.000  H
  H6       1.0000 0.45580  0.15220  0.93620  Biso   1.000  H
  H7       1.0000 0.93620  0.45580  0.45580  Biso   1.000  H
  H8       1.0000 0.15220  0.45580  0.45580  Biso   1.000  H
  H9       1.0000 0.45580  0.15220  0.45580  Biso   1.000  H
  H10      1.0000 0.45580  0.93620  0.45580  Biso   1.000  H
  H11      1.0000 0.93620  0.45580  0.15220  Biso   1.000  H
  H12      1.0000 0.15220  0.45580  0.93620  Biso   1.000  H
  H13      1.0000 0.54420  0.54420  0.06380  Biso   1.000  H
  H14      1.0000 0.54420  0.54420  0.84780  Biso   1.000  H
  H15      1.0000 0.84780  0.06380  0.54420  Biso   1.000  H
  H16      1.0000 0.06380  0.84780  0.54420  Biso   1.000  H
  H17      1.0000 0.06380  0.54420  0.84780  Biso   1.000  H
  H18      1.0000 0.84780  0.54420  0.06380  Biso   1.000  H
  H19      1.0000 0.54420  0.06380  0.54420  Biso   1.000  H
  H20      1.0000 0.54420  0.84780  0.54420  Biso   1.000  H
  H21      1.0000 0.84780  0.54420  0.54420  Biso   1.000  H
  H22      1.0000 0.06380  0.54420  0.54420  Biso   1.000  H
  H23      1.0000 0.54420  0.06380  0.84780  Biso   1.000  H
  H24      1.0000 0.54420  0.84780  0.06380  Biso   1.000  H
  C1       1.0000 0.47349  0.47349  0.96297  Biso   1.000  C
  C2       1.0000 0.47349  0.47349  0.09005  Biso   1.000  C
  C3       1.0000 0.96297  0.09005  0.47349  Biso   1.000  C
  C4       1.0000 0.09005  0.96297  0.47349  Biso   1.000  C
  C5       1.0000 0.47349  0.96297  0.09005  Biso   1.000  C
  C6       1.0000 0.47349  0.09005  0.96297  Biso   1.000  C
  C7       1.0000 0.96297  0.47349  0.47349  Biso   1.000  C
  C8       1.0000 0.09005  0.47349  0.47349  Biso   1.000  C
  C9       1.0000 0.47349  0.09005  0.47349  Biso   1.000  C
  C10      1.0000 0.47349  0.96297  0.47349  Biso   1.000  C
  C11      1.0000 0.96297  0.47349  0.09005  Biso   1.000  C
  C12      1.0000 0.09005  0.47349  0.96297  Biso   1.000  C
  C13      1.0000 0.52651  0.52651  0.03703  Biso   1.000  C
  C14      1.0000 0.52651  0.52651  0.90995  Biso   1.000  C
  C15      1.0000 0.90995  0.03703  0.52651  Biso   1.000  C
  C16      1.0000 0.03703  0.90995  0.52651  Biso   1.000  C
  C17      1.0000 0.03703  0.52651  0.90995  Biso   1.000  C
  C18      1.0000 0.90995  0.52651  0.03703  Biso   1.000  C
  C19      1.0000 0.52651  0.03703  0.52651  Biso   1.000  C
  C20      1.0000 0.52651  0.90995  0.52651  Biso   1.000  C
  C21      1.0000 0.90995  0.52651  0.52651  Biso   1.000  C
  C22      1.0000 0.03703  0.52651  0.52651  Biso   1.000  C
  C23      1.0000 0.52651  0.03703  0.90995  Biso   1.000  C
  C24      1.0000 0.52651  0.90995  0.03703  Biso   1.000  C
  C25      1.0000 0.38859  0.38859  0.11141  Biso   1.000  C
  C26      1.0000 0.44630  0.44630  0.05370  Biso   1.000  C
  C27      1.0000 0.11141  0.11141  0.38859  Biso   1.000  C
  C28      1.0000 0.05370  0.05370  0.44630  Biso   1.000  C
  C29      1.0000 0.38859  0.11141  0.11141  Biso   1.000  C
  C30      1.0000 0.44630  0.05370  0.05370  Biso   1.000  C
  C31      1.0000 0.11141  0.38859  0.38859  Biso   1.000  C
  C32      1.0000 0.05370  0.44630  0.44630  Biso   1.000  C
  C33      1.0000 0.38859  0.11141  0.38859  Biso   1.000  C
  C34      1.0000 0.44630  0.05370  0.44630  Biso   1.000  C
  C35      1.0000 0.11141  0.38859  0.11141  Biso   1.000  C
  C36      1.0000 0.05370  0.44630  0.05370  Biso   1.000  C
  C37      1.0000 0.61141  0.61141  0.88859  Biso   1.000  C
  C38      1.0000 0.55370  0.55370  0.94630  Biso   1.000  C
  C39      1.0000 0.88859  0.88859  0.61141  Biso   1.000  C
  C40      1.0000 0.94630  0.94630  0.55370  Biso   1.000  C
  C41      1.0000 0.88859  0.61141  0.88859  Biso   1.000  C
  C42      1.0000 0.94630  0.55370  0.94630  Biso   1.000  C
  C43      1.0000 0.61141  0.88859  0.61141  Biso   1.000  C
  C44      1.0000 0.55370  0.94630  0.55370  Biso   1.000  C
  C45      1.0000 0.88859  0.61141  0.61141  Biso   1.000  C
  C46      1.0000 0.94630  0.55370  0.55370  Biso   1.000  C
  C47      1.0000 0.61141  0.88859  0.88859  Biso   1.000  C
  C48      1.0000 0.55370  0.94630  0.94630  Biso   1.000  C
  O1       1.0000 0.25000  0.25000  0.25000  Biso   1.000  O
  O2       1.0000 0.75000  0.75000  0.75000  Biso   1.000  O
  O3       1.0000 0.36605  0.36605  0.07321  Biso   1.000  O
  O4       1.0000 0.36605  0.36605  0.19469  Biso   1.000  O
  O5       1.0000 0.07321  0.19469  0.36605  Biso   1.000  O
  O6       1.0000 0.19469  0.07321  0.36605  Biso   1.000  O
  O7       1.0000 0.36605  0.07321  0.19469  Biso   1.000  O
  O8       1.0000 0.36605  0.19469  0.07321  Biso   1.000  O
  O9       1.0000 0.07321  0.36605  0.36605  Biso   1.000  O
  O10      1.0000 0.19469  0.36605  0.36605  Biso   1.000  O
  O11      1.0000 0.36605  0.19469  0.36605  Biso   1.000  O
  O12      1.0000 0.36605  0.07321  0.36605  Biso   1.000  O
  O13      1.0000 0.07321  0.36605  0.19469  Biso   1.000  O
  O14      1.0000 0.19469  0.36605  0.07321  Biso   1.000  O
  O15      1.0000 0.63395  0.63395  0.92679  Biso   1.000  O
  O16      1.0000 0.63395  0.63395  0.80531  Biso   1.000  O
  O17      1.0000 0.80531  0.92679  0.63395  Biso   1.000  O
  O18      1.0000 0.92679  0.80531  0.63395  Biso   1.000  O
  O19      1.0000 0.92679  0.63395  0.80531  Biso   1.000  O
  O20      1.0000 0.80531  0.63395  0.92679  Biso   1.000  O
  O21      1.0000 0.63395  0.92679  0.63395  Biso   1.000  O
  O22      1.0000 0.63395  0.80531  0.63395  Biso   1.000  O
  O23      1.0000 0.80531  0.63395  0.63395  Biso   1.000  O
  O24      1.0000 0.92679  0.63395  0.63395  Biso   1.000  O
  O25      1.0000 0.63395  0.92679  0.80531  Biso   1.000  O
  O26      1.0000 0.63395  0.80531  0.92679  Biso   1.000  O
  Zn9      1.0000 0.86831  0.69103  0.65439  Biso   1.000  Zn
  Zn10     1.0000 0.28083  0.27851  0.06686  Biso   1.000  Zn
  Zn11     1.0000 0.28083  0.10413  0.06686  Biso   1.000  Zn
  Zn12     1.0000 0.86831  0.51665  0.65439  Biso   1.000  Zn
  Zn13     1.0000 0.86805  0.69122  0.47986  Biso   1.000  Zn
  Zn14     1.0000 0.69359  0.69110  0.65460  Biso   1.000  Zn
  Zn15     1.0000 0.28108  0.10393  0.24140  Biso   1.000  Zn
  Zn16     1.0000 0.45555  0.10406  0.06665  Biso   1.000  Zn
  H25      1.0000 0.02984  0.33381  0.51297  Biso   1.000  H
  H26      1.0000 0.02459  0.54985  0.29901  Biso   1.000  H
  H27      1.0000 0.72894  0.33580  0.81554  Biso   1.000  H
  H28      1.0000 0.50789  0.55102  0.82084  Biso   1.000  H
  H29      1.0000 0.03155  0.55043  0.81374  Biso   1.000  H
  H30      1.0000 0.11930  0.94139  0.20829  Biso   1.000  H
  H31      1.0000 0.12454  0.93828  0.42224  Biso   1.000  H
  H32      1.0000 0.42020  0.94501  0.90571  Biso   1.000  H
  H33      1.0000 0.64125  0.94451  0.90041  Biso   1.000  H
  H34      1.0000 0.11758  0.46046  0.90751  Biso   1.000  H
  H35      1.0000 0.11929  0.46135  0.20829  Biso   1.000  H
  H36      1.0000 0.12454  0.24531  0.42224  Biso   1.000  H
  H37      1.0000 0.42020  0.45936  0.90571  Biso   1.000  H
  H38      1.0000 0.64125  0.24413  0.90041  Biso   1.000  H
  H39      1.0000 0.11758  0.24473  0.90751  Biso   1.000  H
  H40      1.0000 0.02984  0.85377  0.51297  Biso   1.000  H
  H41      1.0000 0.02459  0.85688  0.29901  Biso   1.000  H
  H42      1.0000 0.72894  0.85015  0.81554  Biso   1.000  H
  H43      1.0000 0.50789  0.85065  0.82084  Biso   1.000  H
  H44      1.0000 0.03156  0.33470  0.81374  Biso   1.000  H
  H45      1.0000 0.51177  0.85247  0.51367  Biso   1.000  H
  H46      1.0000 0.72487  0.85518  0.29511  Biso   1.000  H
  H47      1.0000 0.63737  0.94269  0.20759  Biso   1.000  H
  H48      1.0000 0.42426  0.93998  0.42614  Biso   1.000  H
  C49      1.0000 0.96340  0.50694  0.47426  Biso   1.000  C
  C50      1.0000 0.02200  0.44994  0.41384  Biso   1.000  C
  C51      1.0000 0.04874  0.36032  0.45065  Biso   1.000  C
  C52      1.0000 0.04559  0.48764  0.32462  Biso   1.000  C
  C53      1.0000 0.68599  0.50812  0.75093  Biso   1.000  C
  C54      1.0000 0.62889  0.45242  0.80784  Biso   1.000  C
  C55      1.0000 0.66684  0.36150  0.83305  Biso   1.000  C
  C56      1.0000 0.53549  0.48902  0.83645  Biso   1.000  C
  C57      1.0000 0.04786  0.48832  0.83325  Biso   1.000  C
  C58      1.0000 0.18574  0.00940  0.24700  Biso   1.000  C
  C59      1.0000 0.12714  0.95059  0.30741  Biso   1.000  C
  C60      1.0000 0.10040  0.92449  0.27060  Biso   1.000  C
  C61      1.0000 0.10354  0.92268  0.39664  Biso   1.000  C
  C62      1.0000 0.46314  0.00981  0.97033  Biso   1.000  C
  C63      1.0000 0.52024  0.95391  0.91341  Biso   1.000  C
  C64      1.0000 0.48230  0.92611  0.88821  Biso   1.000  C
  C65      1.0000 0.61365  0.92571  0.88481  Biso   1.000  C
  C66      1.0000 0.10128  0.43416  0.88801  Biso   1.000  C
  C67      1.0000 0.18574  0.28822  0.24700  Biso   1.000  C
  C68      1.0000 0.12714  0.34522  0.30741  Biso   1.000  C
  C69      1.0000 0.10040  0.43484  0.27060  Biso   1.000  C
  C70      1.0000 0.10354  0.30751  0.39664  Biso   1.000  C
  C71      1.0000 0.46314  0.28703  0.97033  Biso   1.000  C
  C72      1.0000 0.52025  0.34274  0.91341  Biso   1.000  C
  C73      1.0000 0.48230  0.43366  0.88821  Biso   1.000  C
  C74      1.0000 0.61365  0.30614  0.88481  Biso   1.000  C
  C75      1.0000 0.10128  0.30684  0.88801  Biso   1.000  C
  C76      1.0000 0.96340  0.78576  0.47426  Biso   1.000  C
  C77      1.0000 0.02200  0.84457  0.41384  Biso   1.000  C
  C78      1.0000 0.04874  0.87067  0.45065  Biso   1.000  C
  C79      1.0000 0.04560  0.87248  0.32462  Biso   1.000  C
  C80      1.0000 0.68599  0.78535  0.75093  Biso   1.000  C
  C81      1.0000 0.62889  0.84125  0.80784  Biso   1.000  C
  C82      1.0000 0.66683  0.86905  0.83305  Biso   1.000  C
  C83      1.0000 0.53549  0.86945  0.83645  Biso   1.000  C
  C84      1.0000 0.04786  0.36100  0.83325  Biso   1.000  C
  C85      1.0000 0.68778  0.78746  0.46765  Biso   1.000  C
  C86      1.0000 0.62857  0.84357  0.41464  Biso   1.000  C
  C87      1.0000 0.53837  0.87017  0.45165  Biso   1.000  C
  C88      1.0000 0.66257  0.87258  0.32262  Biso   1.000  C
  C89      1.0000 0.96261  0.51102  0.74572  Biso   1.000  C
  C90      1.0000 0.02102  0.45082  0.80774  Biso   1.000  C
  C91      1.0000 0.46136  0.00769  0.25360  Biso   1.000  C
  C92      1.0000 0.52056  0.95159  0.30661  Biso   1.000  C
  C93      1.0000 0.61077  0.92499  0.26960  Biso   1.000  C
  C94      1.0000 0.48656  0.92258  0.39864  Biso   1.000  C
  C95      1.0000 0.18653  0.28413  0.97553  Biso   1.000  C
  C96      1.0000 0.12812  0.34434  0.91351  Biso   1.000  C
  O27      1.0000 0.94129  0.59265  0.43074  Biso   1.000  O
  O28      1.0000 0.94370  0.46643  0.55698  Biso   1.000  O
  O29      1.0000 0.64509  0.59373  0.72562  Biso   1.000  O
  O30      1.0000 0.77030  0.46792  0.72842  Biso   1.000  O
  O31      1.0000 0.94161  0.59403  0.72612  Biso   1.000  O
  O32      1.0000 0.20784  0.02950  0.29051  Biso   1.000  O
  O33      1.0000 0.20544  0.03190  0.16428  Biso   1.000  O
  O34      1.0000 0.50405  0.02921  0.99564  Biso   1.000  O
  O35      1.0000 0.37884  0.03141  0.99283  Biso   1.000  O
  O36      1.0000 0.20753  0.32654  0.99514  Biso   1.000  O
  O37      1.0000 0.20784  0.20251  0.29051  Biso   1.000  O
  O38      1.0000 0.20544  0.32873  0.16428  Biso   1.000  O
  O39      1.0000 0.50405  0.20143  0.99564  Biso   1.000  O
  O40      1.0000 0.37884  0.32724  0.99283  Biso   1.000  O
  O41      1.0000 0.20753  0.20113  0.99514  Biso   1.000  O
  O42      1.0000 0.94129  0.76566  0.43074  Biso   1.000  O
  O43      1.0000 0.94370  0.76326  0.55698  Biso   1.000  O
  O44      1.0000 0.64509  0.76595  0.72562  Biso   1.000  O
  O45      1.0000 0.77030  0.76375  0.72842  Biso   1.000  O
  O46      1.0000 0.94161  0.46862  0.72612  Biso   1.000  O
  O47      1.0000 0.82460  0.64764  0.61049  Biso   1.000  O
  O48      1.0000 0.77008  0.76426  0.43175  Biso   1.000  O
  O49      1.0000 0.64638  0.76586  0.55228  Biso   1.000  O
  O50      1.0000 0.32454  0.14751  0.11076  Biso   1.000  O
  O51      1.0000 0.37905  0.03090  0.28951  Biso   1.000  O
  O52      1.0000 0.50276  0.02930  0.16898  Biso   1.000  O
