data_image0
_cell_length_a       18.255
_cell_length_b       18.255
_cell_length_c       18.255
_cell_angle_alpha    60
_cell_angle_beta     60
_cell_angle_gamma    60

_symmetry_space_group_name_H-M    "P 1"
_symmetry_int_tables_number       1

loop_
  _symmetry_equiv_pos_as_xyz
  'x, y, z'

loop_
  _atom_site_label
  _atom_site_occupancy
  _atom_site_fract_x
  _atom_site_fract_y
  _atom_site_fract_z
  _atom_site_thermal_displace_type
  _atom_site_B_iso_or_equiv
  _atom_site_type_symbol
  Zn1      1.0000 0.29354  0.29354  0.11938  Biso   1.000  Zn
  Zn2      1.0000 0.29354  0.29354  0.29354  Biso   1.000  Zn
  Zn3      1.0000 0.11938  0.29354  0.29354  Biso   1.000  Zn
  Zn4      1.0000 0.29354  0.11938  0.29354  Biso   1.000  Zn
  Zn5      1.0000 0.70646  0.70646  0.88062  Biso   1.000  Zn
  Zn6      1.0000 0.70646  0.70646  0.70646  Biso   1.000  Zn
  Zn7      1.0000 0.70646  0.88062  0.70646  Biso   1.000  Zn
  Zn8      1.0000 0.88062  0.70646  0.70646  Biso   1.000  Zn
  H1       1.0000 0.45570  0.45570  0.93630  Biso   1.000  H
  H2       1.0000 0.45570  0.45570  0.15230  Biso   1.000  H
  H3       1.0000 0.93630  0.15230  0.45570  Biso   1.000  H
  H4       1.0000 0.15230  0.93630  0.45570  Biso   1.000  H
  H5       1.0000 0.45570  0.93630  0.15230  Biso   1.000  H
  H6       1.0000 0.45570  0.15230  0.93630  Biso   1.000  H
  H7       1.0000 0.93630  0.45570  0.45570  Biso   1.000  H
  H8       1.0000 0.15230  0.45570  0.45570  Biso   1.000  H
  H9       1.0000 0.45570  0.15230  0.45570  Biso   1.000  H
  H10      1.0000 0.45570  0.93630  0.45570  Biso   1.000  H
  H11      1.0000 0.93630  0.45570  0.15230  Biso   1.000  H
  H12      1.0000 0.15230  0.45570  0.93630  Biso   1.000  H
  H13      1.0000 0.54430  0.54430  0.06370  Biso   1.000  H
  H14      1.0000 0.54430  0.54430  0.84770  Biso   1.000  H
  H15      1.0000 0.84770  0.06370  0.54430  Biso   1.000  H
  H16      1.0000 0.06370  0.84770  0.54430  Biso   1.000  H
  H17      1.0000 0.06370  0.54430  0.84770  Biso   1.000  H
  H18      1.0000 0.84770  0.54430  0.06370  Biso   1.000  H
  H19      1.0000 0.54430  0.06370  0.54430  Biso   1.000  H
  H20      1.0000 0.54430  0.84770  0.54430  Biso   1.000  H
  H21      1.0000 0.84770  0.54430  0.54430  Biso   1.000  H
  H22      1.0000 0.06370  0.54430  0.54430  Biso   1.000  H
  H23      1.0000 0.54430  0.06370  0.84770  Biso   1.000  H
  H24      1.0000 0.54430  0.84770  0.06370  Biso   1.000  H
  C1       1.0000 0.47332  0.47332  0.96310  Biso   1.000  C
  C2       1.0000 0.47332  0.47332  0.09026  Biso   1.000  C
  C3       1.0000 0.96310  0.09026  0.47332  Biso   1.000  C
  C4       1.0000 0.09026  0.96310  0.47332  Biso   1.000  C
  C5       1.0000 0.47332  0.96310  0.09026  Biso   1.000  C
  C6       1.0000 0.47332  0.09026  0.96310  Biso   1.000  C
  C7       1.0000 0.96310  0.47332  0.47332  Biso   1.000  C
  C8       1.0000 0.09026  0.47332  0.47332  Biso   1.000  C
  C9       1.0000 0.47332  0.09026  0.47332  Biso   1.000  C
  C10      1.0000 0.47332  0.96310  0.47332  Biso   1.000  C
  C11      1.0000 0.96310  0.47332  0.09026  Biso   1.000  C
  C12      1.0000 0.09026  0.47332  0.96310  Biso   1.000  C
  C13      1.0000 0.52668  0.52668  0.03690  Biso   1.000  C
  C14      1.0000 0.52668  0.52668  0.90974  Biso   1.000  C
  C15      1.0000 0.90974  0.03690  0.52668  Biso   1.000  C
  C16      1.0000 0.03690  0.90974  0.52668  Biso   1.000  C
  C17      1.0000 0.03690  0.52668  0.90974  Biso   1.000  C
  C18      1.0000 0.90974  0.52668  0.03690  Biso   1.000  C
  C19      1.0000 0.52668  0.03690  0.52668  Biso   1.000  C
  C20      1.0000 0.52668  0.90974  0.52668  Biso   1.000  C
  C21      1.0000 0.90974  0.52668  0.52668  Biso   1.000  C
  C22      1.0000 0.03690  0.52668  0.52668  Biso   1.000  C
  C23      1.0000 0.52668  0.03690  0.90974  Biso   1.000  C
  C24      1.0000 0.52668  0.90974  0.03690  Biso   1.000  C
  C25      1.0000 0.38870  0.38870  0.11130  Biso   1.000  C
  C26      1.0000 0.44580  0.44580  0.05420  Biso   1.000  C
  C27      1.0000 0.11130  0.11130  0.38870  Biso   1.000  C
  C28      1.0000 0.05420  0.05420  0.44580  Biso   1.000  C
  C29      1.0000 0.38870  0.11130  0.11130  Biso   1.000  C
  C30      1.0000 0.44580  0.05420  0.05420  Biso   1.000  C
  C31      1.0000 0.11130  0.38870  0.38870  Biso   1.000  C
  C32      1.0000 0.05420  0.44580  0.44580  Biso   1.000  C
  C33      1.0000 0.38870  0.11130  0.38870  Biso   1.000  C
  C34      1.0000 0.44580  0.05420  0.44580  Biso   1.000  C
  C35      1.0000 0.11130  0.38870  0.11130  Biso   1.000  C
  C36      1.0000 0.05420  0.44580  0.05420  Biso   1.000  C
  C37      1.0000 0.61130  0.61130  0.88870  Biso   1.000  C
  C38      1.0000 0.55420  0.55420  0.94580  Biso   1.000  C
  C39      1.0000 0.88870  0.88870  0.61130  Biso   1.000  C
  C40      1.0000 0.94580  0.94580  0.55420  Biso   1.000  C
  C41      1.0000 0.88870  0.61130  0.88870  Biso   1.000  C
  C42      1.0000 0.94580  0.55420  0.94580  Biso   1.000  C
  C43      1.0000 0.61130  0.88870  0.61130  Biso   1.000  C
  C44      1.0000 0.55420  0.94580  0.55420  Biso   1.000  C
  C45      1.0000 0.88870  0.61130  0.61130  Biso   1.000  C
  C46      1.0000 0.94580  0.55420  0.55420  Biso   1.000  C
  C47      1.0000 0.61130  0.88870  0.88870  Biso   1.000  C
  C48      1.0000 0.55420  0.94580  0.94580  Biso   1.000  C
  O1       1.0000 0.25000  0.25000  0.25000  Biso   1.000  O
  O2       1.0000 0.75000  0.75000  0.75000  Biso   1.000  O
  O3       1.0000 0.36613  0.36613  0.07303  Biso   1.000  O
  O4       1.0000 0.36613  0.36613  0.19471  Biso   1.000  O
  O5       1.0000 0.07303  0.19471  0.36613  Biso   1.000  O
  O6       1.0000 0.19471  0.07303  0.36613  Biso   1.000  O
  O7       1.0000 0.36613  0.07303  0.19471  Biso   1.000  O
  O8       1.0000 0.36613  0.19471  0.07303  Biso   1.000  O
  O9       1.0000 0.07303  0.36613  0.36613  Biso   1.000  O
  O10      1.0000 0.19471  0.36613  0.36613  Biso   1.000  O
  O11      1.0000 0.36613  0.19471  0.36613  Biso   1.000  O
  O12      1.0000 0.36613  0.07303  0.36613  Biso   1.000  O
  O13      1.0000 0.07303  0.36613  0.19471  Biso   1.000  O
  O14      1.0000 0.19471  0.36613  0.07303  Biso   1.000  O
  O15      1.0000 0.63387  0.63387  0.92697  Biso   1.000  O
  O16      1.0000 0.63387  0.63387  0.80529  Biso   1.000  O
  O17      1.0000 0.80529  0.92697  0.63387  Biso   1.000  O
  O18      1.0000 0.92697  0.80529  0.63387  Biso   1.000  O
  O19      1.0000 0.92697  0.63387  0.80529  Biso   1.000  O
  O20      1.0000 0.80529  0.63387  0.92697  Biso   1.000  O
  O21      1.0000 0.63387  0.92697  0.63387  Biso   1.000  O
  O22      1.0000 0.63387  0.80529  0.63387  Biso   1.000  O
  O23      1.0000 0.80529  0.63387  0.63387  Biso   1.000  O
  O24      1.0000 0.92697  0.63387  0.63387  Biso   1.000  O
  O25      1.0000 0.63387  0.92697  0.80529  Biso   1.000  O
  O26      1.0000 0.63387  0.80529  0.92697  Biso   1.000  O
  Zn9      1.0000 0.98487  0.97832  0.87866  Biso   1.000  Zn
  Zn10     1.0000 0.56192  0.57095  0.47525  Biso   1.000  Zn
  Zn11     1.0000 0.98440  0.15361  0.87935  Biso   1.000  Zn
  Zn12     1.0000 0.98454  0.97857  0.05468  Biso   1.000  Zn
  Zn13     1.0000 0.15726  0.97901  0.87935  Biso   1.000  Zn
  Zn14     1.0000 0.38953  0.57026  0.47456  Biso   1.000  Zn
  Zn15     1.0000 0.56225  0.57070  0.29924  Biso   1.000  Zn
  Zn16     1.0000 0.56239  0.39566  0.47456  Biso   1.000  Zn
  H25      1.0000 0.81937  0.11630  0.24323  Biso   1.000  H
  H26      1.0000 0.34223  0.81274  0.01812  Biso   1.000  H
  H27      1.0000 0.12003  0.34179  0.71274  Biso   1.000  H
  H28      1.0000 0.42632  0.73710  0.11069  Biso   1.000  H
  H29      1.0000 0.72760  0.20824  0.33579  Biso   1.000  H
  H30      1.0000 0.20481  0.43165  0.64118  Biso   1.000  H
  H31      1.0000 0.72742  0.43298  0.11069  Biso   1.000  H
  H32      1.0000 0.20456  0.73654  0.33579  Biso   1.000  H
  H33      1.0000 0.42676  0.20748  0.64118  Biso   1.000  H
  H34      1.0000 0.12047  0.81218  0.24323  Biso   1.000  H
  H35      1.0000 0.81919  0.34103  0.01812  Biso   1.000  H
  H36      1.0000 0.34198  0.11762  0.71274  Biso   1.000  H
  H37      1.0000 0.82710  0.33500  0.71903  Biso   1.000  H
  H38      1.0000 0.82149  0.11863  0.71182  Biso   1.000  H
  H39      1.0000 0.82752  0.81846  0.23643  Biso   1.000  H
  H40      1.0000 0.82174  0.81183  0.01914  Biso   1.000  H
  H41      1.0000 0.33723  0.81975  0.71903  Biso   1.000  H
  H42      1.0000 0.12449  0.81259  0.71182  Biso   1.000  H
  H43      1.0000 0.20956  0.72952  0.63489  Biso   1.000  H
  H44      1.0000 0.42230  0.73668  0.64210  Biso   1.000  H
  H45      1.0000 0.71927  0.73081  0.11749  Biso   1.000  H
  H46      1.0000 0.72504  0.73745  0.33478  Biso   1.000  H
  H47      1.0000 0.71969  0.21427  0.63489  Biso   1.000  H
  H48      1.0000 0.72530  0.43064  0.64210  Biso   1.000  H
  C49      1.0000 0.80431  0.17862  0.21624  Biso   1.000  C
  C50      1.0000 0.31553  0.79752  0.08064  Biso   1.000  C
  C51      1.0000 0.18153  0.31494  0.69761  Biso   1.000  C
  C52      1.0000 0.36484  0.75209  0.13768  Biso   1.000  C
  C53      1.0000 0.74259  0.23528  0.27328  Biso   1.000  C
  C54      1.0000 0.23157  0.36936  0.65631  Biso   1.000  C
  C55      1.0000 0.74248  0.37065  0.13768  Biso   1.000  C
  C56      1.0000 0.23126  0.75175  0.27328  Biso   1.000  C
  C57      1.0000 0.36526  0.23433  0.65631  Biso   1.000  C
  C58      1.0000 0.18195  0.79718  0.21624  Biso   1.000  C
  C59      1.0000 0.80420  0.31399  0.08064  Biso   1.000  C
  C60      1.0000 0.31521  0.17991  0.69761  Biso   1.000  C
  C61      1.0000 0.88998  0.16454  0.78246  Biso   1.000  C
  C62      1.0000 0.83289  0.21916  0.72420  Biso   1.000  C
  C63      1.0000 0.80808  0.31150  0.69934  Biso   1.000  C
  C64      1.0000 0.80478  0.18083  0.69508  Biso   1.000  C
  C65      1.0000 0.89021  0.88205  0.06542  Biso   1.000  C
  C66      1.0000 0.83322  0.82390  0.12012  Biso   1.000  C
  C67      1.0000 0.80850  0.79891  0.21279  Biso   1.000  C
  C68      1.0000 0.80510  0.79499  0.08156  Biso   1.000  C
  C69      1.0000 0.16896  0.88276  0.78246  Biso   1.000  C
  C70      1.0000 0.22325  0.82489  0.72420  Biso   1.000  C
  C71      1.0000 0.31431  0.80019  0.69934  Biso   1.000  C
  C72      1.0000 0.18583  0.79596  0.69508  Biso   1.000  C
  C73      1.0000 0.37783  0.66651  0.57146  Biso   1.000  C
  C74      1.0000 0.32354  0.72438  0.62972  Biso   1.000  C
  C75      1.0000 0.23248  0.74908  0.65458  Biso   1.000  C
  C76      1.0000 0.36096  0.75332  0.65884  Biso   1.000  C
  C77      1.0000 0.65658  0.66722  0.28850  Biso   1.000  C
  C78      1.0000 0.71357  0.72537  0.23380  Biso   1.000  C
  C79      1.0000 0.73829  0.75036  0.14113  Biso   1.000  C
  C80      1.0000 0.74169  0.75428  0.27236  Biso   1.000  C
  C81      1.0000 0.65681  0.38473  0.57146  Biso   1.000  C
  C82      1.0000 0.71390  0.33011  0.62972  Biso   1.000  C
  C83      1.0000 0.73871  0.23777  0.65458  Biso   1.000  C
  C84      1.0000 0.74201  0.36844  0.65884  Biso   1.000  C
  C85      1.0000 0.88877  0.16313  0.06471  Biso   1.000  C
  C86      1.0000 0.83663  0.21662  0.11855  Biso   1.000  C
  C87      1.0000 0.16665  0.88246  0.06471  Biso   1.000  C
  C88      1.0000 0.21942  0.82997  0.11855  Biso   1.000  C
  C89      1.0000 0.16642  0.16383  0.78287  Biso   1.000  C
  C90      1.0000 0.21911  0.21758  0.73029  Biso   1.000  C
  C91      1.0000 0.38013  0.66681  0.28921  Biso   1.000  C
  C92      1.0000 0.32736  0.71930  0.23537  Biso   1.000  C
  C93      1.0000 0.65802  0.38614  0.28921  Biso   1.000  C
  C94      1.0000 0.71016  0.33266  0.23537  Biso   1.000  C
  C95      1.0000 0.38037  0.38544  0.57105  Biso   1.000  C
  C96      1.0000 0.32768  0.33169  0.62363  Biso   1.000  C
  O27      1.0000 0.91248  0.20195  0.97518  Biso   1.000  O
  O28      1.0000 0.07859  0.90621  0.10347  Biso   1.000  O
  O29      1.0000 0.20483  0.07462  0.80681  Biso   1.000  O
  O30      1.0000 0.34182  0.64275  0.37874  Biso   1.000  O
  O31      1.0000 0.63420  0.47539  0.25045  Biso   1.000  O
  O32      1.0000 0.46844  0.34690  0.54711  Biso   1.000  O
  O33      1.0000 0.63431  0.34732  0.37874  Biso   1.000  O
  O34      1.0000 0.46820  0.64307  0.25045  Biso   1.000  O
  O35      1.0000 0.34196  0.47465  0.54711  Biso   1.000  O
  O36      1.0000 0.20497  0.90653  0.97518  Biso   1.000  O
  O37      1.0000 0.91258  0.07388  0.10347  Biso   1.000  O
  O38      1.0000 0.07835  0.20237  0.80681  Biso   1.000  O
  O39      1.0000 0.02948  0.02414  0.92478  Biso   1.000  O
  O40      1.0000 0.51731  0.52514  0.42914  Biso   1.000  O
  O41      1.0000 0.91309  0.07564  0.80560  Biso   1.000  O
  O42      1.0000 0.91196  0.20299  0.80530  Biso   1.000  O
  O43      1.0000 0.91323  0.90532  0.97621  Biso   1.000  O
  O44      1.0000 0.91221  0.90470  0.10409  Biso   1.000  O
  O45      1.0000 0.08130  0.90575  0.80560  Biso   1.000  O
  O46      1.0000 0.20655  0.90544  0.80530  Biso   1.000  O
  O47      1.0000 0.46549  0.64353  0.54832  Biso   1.000  O
  O48      1.0000 0.34024  0.64383  0.54862  Biso   1.000  O
  O49      1.0000 0.63356  0.64395  0.37771  Biso   1.000  O
  O50      1.0000 0.63458  0.64457  0.24983  Biso   1.000  O
  O51      1.0000 0.63370  0.47363  0.54832  Biso   1.000  O
  O52      1.0000 0.63483  0.34628  0.54862  Biso   1.000  O
