data_image0
_cell_length_a       18.2455
_cell_length_b       18.2455
_cell_length_c       18.2455
_cell_angle_alpha    60
_cell_angle_beta     60
_cell_angle_gamma    60

_symmetry_space_group_name_H-M    "P 1"
_symmetry_int_tables_number       1

loop_
  _symmetry_equiv_pos_as_xyz
  'x, y, z'

loop_
  _atom_site_label
  _atom_site_occupancy
  _atom_site_fract_x
  _atom_site_fract_y
  _atom_site_fract_z
  _atom_site_thermal_displace_type
  _atom_site_B_iso_or_equiv
  _atom_site_type_symbol
  C1       1.0000 0.29354  0.29354  0.11938  Biso   1.000  C
  C2       1.0000 0.29354  0.29354  0.29354  Biso   1.000  C
  C3       1.0000 0.11938  0.29354  0.29354  Biso   1.000  C
  C4       1.0000 0.29354  0.11938  0.29354  Biso   1.000  C
  C5       1.0000 0.70646  0.70646  0.88062  Biso   1.000  C
  C6       1.0000 0.70646  0.70646  0.70646  Biso   1.000  C
  C7       1.0000 0.70646  0.88062  0.70646  Biso   1.000  C
  C8       1.0000 0.88062  0.70646  0.70646  Biso   1.000  C
  C9       1.0000 0.45580  0.45580  0.93620  Biso   1.000  C
  C10      1.0000 0.45580  0.45580  0.15220  Biso   1.000  C
  C11      1.0000 0.93620  0.15220  0.45580  Biso   1.000  C
  C12      1.0000 0.15220  0.93620  0.45580  Biso   1.000  C
  C13      1.0000 0.45580  0.93620  0.15220  Biso   1.000  C
  C14      1.0000 0.45580  0.15220  0.93620  Biso   1.000  C
  C15      1.0000 0.93620  0.45580  0.45580  Biso   1.000  C
  C16      1.0000 0.15220  0.45580  0.45580  Biso   1.000  C
  C17      1.0000 0.45580  0.15220  0.45580  Biso   1.000  C
  C18      1.0000 0.45580  0.93620  0.45580  Biso   1.000  C
  C19      1.0000 0.93620  0.45580  0.15220  Biso   1.000  C
  C20      1.0000 0.15220  0.45580  0.93620  Biso   1.000  C
  C21      1.0000 0.54420  0.54420  0.06380  Biso   1.000  C
  C22      1.0000 0.54420  0.54420  0.84780  Biso   1.000  C
  C23      1.0000 0.84780  0.06380  0.54420  Biso   1.000  C
  C24      1.0000 0.06380  0.84780  0.54420  Biso   1.000  C
  C25      1.0000 0.06380  0.54420  0.84780  Biso   1.000  C
  C26      1.0000 0.84780  0.54420  0.06380  Biso   1.000  C
  C27      1.0000 0.54420  0.06380  0.54420  Biso   1.000  C
  C28      1.0000 0.54420  0.84780  0.54420  Biso   1.000  C
  C29      1.0000 0.84780  0.54420  0.54420  Biso   1.000  C
  C30      1.0000 0.06380  0.54420  0.54420  Biso   1.000  C
  C31      1.0000 0.54420  0.06380  0.84780  Biso   1.000  C
  C32      1.0000 0.54420  0.84780  0.06380  Biso   1.000  C
  C33      1.0000 0.47345  0.47345  0.96303  Biso   1.000  C
  C34      1.0000 0.47345  0.47345  0.09007  Biso   1.000  C
  C35      1.0000 0.96303  0.09007  0.47345  Biso   1.000  C
  C36      1.0000 0.09007  0.96303  0.47345  Biso   1.000  C
  C37      1.0000 0.47345  0.96303  0.09007  Biso   1.000  C
  C38      1.0000 0.47345  0.09007  0.96303  Biso   1.000  C
  C39      1.0000 0.96303  0.47345  0.47345  Biso   1.000  C
  C40      1.0000 0.09007  0.47345  0.47345  Biso   1.000  C
  C41      1.0000 0.47345  0.09007  0.47345  Biso   1.000  C
  C42      1.0000 0.47345  0.96303  0.47345  Biso   1.000  C
  C43      1.0000 0.96303  0.47345  0.09007  Biso   1.000  C
  C44      1.0000 0.09007  0.47345  0.96303  Biso   1.000  C
  C45      1.0000 0.52655  0.52655  0.03697  Biso   1.000  C
  C46      1.0000 0.52655  0.52655  0.90993  Biso   1.000  C
  C47      1.0000 0.90993  0.03697  0.52655  Biso   1.000  C
  C48      1.0000 0.03697  0.90993  0.52655  Biso   1.000  C
  C49      1.0000 0.03697  0.52655  0.90993  Biso   1.000  C
  C50      1.0000 0.90993  0.52655  0.03697  Biso   1.000  C
  C51      1.0000 0.52655  0.03697  0.52655  Biso   1.000  C
  C52      1.0000 0.52655  0.90993  0.52655  Biso   1.000  C
  C53      1.0000 0.90993  0.52655  0.52655  Biso   1.000  C
  C54      1.0000 0.03697  0.52655  0.52655  Biso   1.000  C
  C55      1.0000 0.52655  0.03697  0.90993  Biso   1.000  C
  C56      1.0000 0.52655  0.90993  0.03697  Biso   1.000  C
  C57      1.0000 0.38857  0.38857  0.11143  Biso   1.000  C
  C58      1.0000 0.44620  0.44620  0.05380  Biso   1.000  C
  C59      1.0000 0.11143  0.11143  0.38857  Biso   1.000  C
  C60      1.0000 0.05380  0.05380  0.44620  Biso   1.000  C
  C61      1.0000 0.38857  0.11143  0.11143  Biso   1.000  C
  C62      1.0000 0.44620  0.05380  0.05380  Biso   1.000  C
  C63      1.0000 0.11143  0.38857  0.38857  Biso   1.000  C
  C64      1.0000 0.05380  0.44620  0.44620  Biso   1.000  C
  C65      1.0000 0.38857  0.11143  0.38857  Biso   1.000  C
  C66      1.0000 0.44620  0.05380  0.44620  Biso   1.000  C
  C67      1.0000 0.11143  0.38857  0.11143  Biso   1.000  C
  C68      1.0000 0.05380  0.44620  0.05380  Biso   1.000  C
  C69      1.0000 0.61143  0.61143  0.88857  Biso   1.000  C
  C70      1.0000 0.55380  0.55380  0.94620  Biso   1.000  C
  C71      1.0000 0.88857  0.88857  0.61143  Biso   1.000  C
  C72      1.0000 0.94620  0.94620  0.55380  Biso   1.000  C
  C73      1.0000 0.88857  0.61143  0.88857  Biso   1.000  C
  C74      1.0000 0.94620  0.55380  0.94620  Biso   1.000  C
  C75      1.0000 0.61143  0.88857  0.61143  Biso   1.000  C
  C76      1.0000 0.55380  0.94620  0.55380  Biso   1.000  C
  C77      1.0000 0.88857  0.61143  0.61143  Biso   1.000  C
  C78      1.0000 0.94620  0.55380  0.55380  Biso   1.000  C
  C79      1.0000 0.61143  0.88857  0.88857  Biso   1.000  C
  C80      1.0000 0.55380  0.94620  0.94620  Biso   1.000  C
  C81      1.0000 0.25000  0.25000  0.25000  Biso   1.000  C
  C82      1.0000 0.75000  0.75000  0.75000  Biso   1.000  C
  C83      1.0000 0.36603  0.36603  0.07311  Biso   1.000  C
  C84      1.0000 0.36603  0.36603  0.19483  Biso   1.000  C
  C85      1.0000 0.07311  0.19483  0.36603  Biso   1.000  C
  C86      1.0000 0.19483  0.07311  0.36603  Biso   1.000  C
  C87      1.0000 0.36603  0.07311  0.19483  Biso   1.000  C
  C88      1.0000 0.36603  0.19483  0.07311  Biso   1.000  C
  C89      1.0000 0.07311  0.36603  0.36603  Biso   1.000  C
  C90      1.0000 0.19483  0.36603  0.36603  Biso   1.000  C
  C91      1.0000 0.36603  0.19483  0.36603  Biso   1.000  C
  C92      1.0000 0.36603  0.07311  0.36603  Biso   1.000  C
  C93      1.0000 0.07311  0.36603  0.19483  Biso   1.000  C
  C94      1.0000 0.19483  0.36603  0.07311  Biso   1.000  C
  C95      1.0000 0.63397  0.63397  0.92689  Biso   1.000  C
  C96      1.0000 0.63397  0.63397  0.80517  Biso   1.000  C
  C97      1.0000 0.80517  0.92689  0.63397  Biso   1.000  C
  C98      1.0000 0.92689  0.80517  0.63397  Biso   1.000  C
  C99      1.0000 0.92689  0.63397  0.80517  Biso   1.000  C
  C100     1.0000 0.80517  0.63397  0.92689  Biso   1.000  C
  C101     1.0000 0.63397  0.92689  0.63397  Biso   1.000  C
  C102     1.0000 0.63397  0.80517  0.63397  Biso   1.000  C
  C103     1.0000 0.80517  0.63397  0.63397  Biso   1.000  C
  C104     1.0000 0.92689  0.63397  0.63397  Biso   1.000  C
  C105     1.0000 0.63397  0.92689  0.80517  Biso   1.000  C
  C106     1.0000 0.63397  0.80517  0.92689  Biso   1.000  C
  O1       1.0000 0.59800  0.07319  0.72059  Biso   1.000  O
  O2       1.0000 0.59800  0.25156  0.72059  Biso   1.000  O
  O3       1.0000 0.41964  0.25156  0.72059  Biso   1.000  O
  O4       1.0000 0.59800  0.25156  0.54222  Biso   1.000  O
  O5       1.0000 0.01869  0.65909  0.12812  Biso   1.000  O
  O6       1.0000 0.01869  0.83745  0.12812  Biso   1.000  O
  O7       1.0000 0.19705  0.65909  0.12812  Biso   1.000  O
  O8       1.0000 0.01869  0.65909  0.30648  Biso   1.000  O
  O9       1.0000 0.45074  0.89291  0.88436  Biso   1.000  O
  O10      1.0000 0.76177  0.41533  0.57332  Biso   1.000  O
  O11      1.0000 0.23936  0.10429  0.88436  Biso   1.000  O
  O12      1.0000 0.76177  0.41533  0.36194  Biso   1.000  O
  O13      1.0000 0.23936  0.41533  0.57332  Biso   1.000  O
  O14      1.0000 0.76177  0.10429  0.88436  Biso   1.000  O
  O15      1.0000 0.45074  0.41533  0.36194  Biso   1.000  O
  O16      1.0000 0.76177  0.89291  0.88436  Biso   1.000  O
  O17      1.0000 0.76177  0.10429  0.36194  Biso   1.000  O
  O18      1.0000 0.45074  0.41533  0.88436  Biso   1.000  O
  O19      1.0000 0.76177  0.89291  0.57332  Biso   1.000  O
  O20      1.0000 0.23936  0.41533  0.88436  Biso   1.000  O
  O21      1.0000 0.16595  0.49532  0.96435  Biso   1.000  O
  O22      1.0000 0.85492  0.01773  0.27538  Biso   1.000  O
  O23      1.0000 0.37733  0.49532  0.96435  Biso   1.000  O
  O24      1.0000 0.85492  0.80635  0.48676  Biso   1.000  O
  O25      1.0000 0.37733  0.49531  0.27538  Biso   1.000  O
  O26      1.0000 0.85492  0.01773  0.96435  Biso   1.000  O
  O27      1.0000 0.16595  0.49532  0.48676  Biso   1.000  O
  O28      1.0000 0.85492  0.80635  0.96435  Biso   1.000  O
  O29      1.0000 0.85492  0.49532  0.48676  Biso   1.000  O
  O30      1.0000 0.16595  0.01773  0.96435  Biso   1.000  O
  O31      1.0000 0.85492  0.49531  0.27538  Biso   1.000  O
  O32      1.0000 0.37733  0.80635  0.96435  Biso   1.000  O
  O33      1.0000 0.39800  0.91586  0.89925  Biso   1.000  O
  O34      1.0000 0.77667  0.43022  0.52058  Biso   1.000  O
  O35      1.0000 0.26231  0.05155  0.89925  Biso   1.000  O
  O36      1.0000 0.77667  0.43022  0.38489  Biso   1.000  O
  O37      1.0000 0.26231  0.43022  0.52058  Biso   1.000  O
  O38      1.0000 0.77667  0.05155  0.89925  Biso   1.000  O
  O39      1.0000 0.39800  0.43022  0.38489  Biso   1.000  O
  O40      1.0000 0.77667  0.91586  0.89925  Biso   1.000  O
  O41      1.0000 0.77667  0.05155  0.38489  Biso   1.000  O
  O42      1.0000 0.39800  0.43022  0.89925  Biso   1.000  O
  O43      1.0000 0.77667  0.91586  0.52058  Biso   1.000  O
  O44      1.0000 0.26231  0.43022  0.89925  Biso   1.000  O
  O45      1.0000 0.21869  0.48042  0.94945  Biso   1.000  O
  O46      1.0000 0.84002  0.99478  0.32812  Biso   1.000  O
  O47      1.0000 0.35438  0.48042  0.94945  Biso   1.000  O
  O48      1.0000 0.84002  0.85909  0.46381  Biso   1.000  O
  O49      1.0000 0.35438  0.48042  0.32812  Biso   1.000  O
  O50      1.0000 0.84002  0.99478  0.94945  Biso   1.000  O
  O51      1.0000 0.21869  0.48042  0.46381  Biso   1.000  O
  O52      1.0000 0.84002  0.85909  0.94945  Biso   1.000  O
  O53      1.0000 0.84002  0.48042  0.46381  Biso   1.000  O
  O54      1.0000 0.21869  0.99478  0.94945  Biso   1.000  O
  O55      1.0000 0.84002  0.48042  0.32812  Biso   1.000  O
  O56      1.0000 0.35438  0.85909  0.94945  Biso   1.000  O
  O57      1.0000 0.41712  0.07067  0.81229  Biso   1.000  O
  O58      1.0000 0.35622  0.00978  0.87318  Biso   1.000  O
  O59      1.0000 0.68970  0.34326  0.53970  Biso   1.000  O
  O60      1.0000 0.75060  0.40415  0.47881  Biso   1.000  O
  O61      1.0000 0.41712  0.34326  0.53970  Biso   1.000  O
  O62      1.0000 0.35622  0.40415  0.47881  Biso   1.000  O
  O63      1.0000 0.68970  0.07067  0.81229  Biso   1.000  O
  O64      1.0000 0.75060  0.00978  0.87318  Biso   1.000  O
  O65      1.0000 0.68970  0.07067  0.53970  Biso   1.000  O
  O66      1.0000 0.75060  0.00978  0.47881  Biso   1.000  O
  O67      1.0000 0.41712  0.34326  0.81229  Biso   1.000  O
  O68      1.0000 0.35622  0.40415  0.87318  Biso   1.000  O
  O69      1.0000 0.19957  0.56739  0.03642  Biso   1.000  O
  O70      1.0000 0.26047  0.50649  0.97552  Biso   1.000  O
  O71      1.0000 0.92699  0.83997  0.30900  Biso   1.000  O
  O72      1.0000 0.86609  0.90086  0.36990  Biso   1.000  O
  O73      1.0000 0.19957  0.56739  0.30900  Biso   1.000  O
  O74      1.0000 0.26047  0.50649  0.36990  Biso   1.000  O
  O75      1.0000 0.92699  0.83997  0.03642  Biso   1.000  O
  O76      1.0000 0.86609  0.90086  0.97552  Biso   1.000  O
  O77      1.0000 0.92699  0.56739  0.30900  Biso   1.000  O
  O78      1.0000 0.86609  0.50649  0.36990  Biso   1.000  O
  O79      1.0000 0.19957  0.83997  0.03642  Biso   1.000  O
  O80      1.0000 0.26047  0.90086  0.97552  Biso   1.000  O
  O81      1.0000 0.55341  0.20696  0.67600  Biso   1.000  O
  O82      1.0000 0.06328  0.70368  0.17271  Biso   1.000  O
  O83      1.0000 0.49946  0.02659  0.79316  Biso   1.000  O
  O84      1.0000 0.67058  0.32413  0.62204  Biso   1.000  O
  O85      1.0000 0.37303  0.15301  0.79316  Biso   1.000  O
  O86      1.0000 0.67058  0.32413  0.49562  Biso   1.000  O
  O87      1.0000 0.37303  0.32413  0.62204  Biso   1.000  O
  O88      1.0000 0.67058  0.15301  0.79316  Biso   1.000  O
  O89      1.0000 0.49946  0.32413  0.49562  Biso   1.000  O
  O90      1.0000 0.67058  0.02659  0.79316  Biso   1.000  O
  O91      1.0000 0.67058  0.15301  0.49562  Biso   1.000  O
  O92      1.0000 0.49946  0.32413  0.79316  Biso   1.000  O
  O93      1.0000 0.67058  0.02659  0.62204  Biso   1.000  O
  O94      1.0000 0.37303  0.32413  0.79316  Biso   1.000  O
  O95      1.0000 0.11723  0.58651  0.05554  Biso   1.000  O
  O96      1.0000 0.94611  0.88406  0.22666  Biso   1.000  O
  O97      1.0000 0.24366  0.58651  0.05554  Biso   1.000  O
  O98      1.0000 0.94611  0.75763  0.35309  Biso   1.000  O
  O99      1.0000 0.24366  0.58651  0.22666  Biso   1.000  O
  O100     1.0000 0.94611  0.88406  0.05554  Biso   1.000  O
  O101     1.0000 0.11723  0.58651  0.35309  Biso   1.000  O
  O102     1.0000 0.94611  0.75763  0.05554  Biso   1.000  O
  O103     1.0000 0.94611  0.58651  0.35309  Biso   1.000  O
  O104     1.0000 0.11723  0.88406  0.05554  Biso   1.000  O
  O105     1.0000 0.94611  0.58651  0.22666  Biso   1.000  O
  O106     1.0000 0.24366  0.75763  0.05554  Biso   1.000  O
