data_image0
_cell_length_a       18.3083
_cell_length_b       18.3083
_cell_length_c       18.3083
_cell_angle_alpha    60
_cell_angle_beta     60
_cell_angle_gamma    60

_symmetry_space_group_name_H-M    "P 1"
_symmetry_int_tables_number       1

loop_
  _symmetry_equiv_pos_as_xyz
  'x, y, z'

loop_
  _atom_site_label
  _atom_site_occupancy
  _atom_site_fract_x
  _atom_site_fract_y
  _atom_site_fract_z
  _atom_site_thermal_displace_type
  _atom_site_B_iso_or_equiv
  _atom_site_type_symbol
  C1       1.0000 0.29342  0.29341  0.11976  Biso   1.000  C
  C2       1.0000 0.29342  0.29341  0.29341  Biso   1.000  C
  C3       1.0000 0.11977  0.29341  0.29341  Biso   1.000  C
  C4       1.0000 0.29342  0.11976  0.29341  Biso   1.000  C
  C5       1.0000 0.70658  0.70659  0.88024  Biso   1.000  C
  C6       1.0000 0.70658  0.70659  0.70659  Biso   1.000  C
  C7       1.0000 0.70658  0.88024  0.70659  Biso   1.000  C
  C8       1.0000 0.88023  0.70659  0.70659  Biso   1.000  C
  C9       1.0000 0.45480  0.45480  0.93480  Biso   1.000  C
  C10      1.0000 0.45480  0.45480  0.15560  Biso   1.000  C
  C11      1.0000 0.93480  0.15560  0.45480  Biso   1.000  C
  C12      1.0000 0.15560  0.93480  0.45480  Biso   1.000  C
  C13      1.0000 0.45480  0.93480  0.15560  Biso   1.000  C
  C14      1.0000 0.45480  0.15560  0.93480  Biso   1.000  C
  C15      1.0000 0.93480  0.45480  0.45480  Biso   1.000  C
  C16      1.0000 0.15560  0.45480  0.45480  Biso   1.000  C
  C17      1.0000 0.45480  0.15560  0.45480  Biso   1.000  C
  C18      1.0000 0.45480  0.93480  0.45480  Biso   1.000  C
  C19      1.0000 0.93480  0.45480  0.15560  Biso   1.000  C
  C20      1.0000 0.15560  0.45480  0.93480  Biso   1.000  C
  C21      1.0000 0.54520  0.54520  0.06520  Biso   1.000  C
  C22      1.0000 0.54520  0.54520  0.84440  Biso   1.000  C
  C23      1.0000 0.84440  0.06520  0.54520  Biso   1.000  C
  C24      1.0000 0.06520  0.84440  0.54520  Biso   1.000  C
  C25      1.0000 0.06520  0.54520  0.84440  Biso   1.000  C
  C26      1.0000 0.84440  0.54520  0.06520  Biso   1.000  C
  C27      1.0000 0.54520  0.06520  0.54520  Biso   1.000  C
  C28      1.0000 0.54520  0.84440  0.54520  Biso   1.000  C
  C29      1.0000 0.84440  0.54520  0.54520  Biso   1.000  C
  C30      1.0000 0.06520  0.54520  0.54520  Biso   1.000  C
  C31      1.0000 0.54520  0.06520  0.84440  Biso   1.000  C
  C32      1.0000 0.54520  0.84440  0.06520  Biso   1.000  C
  C33      1.0000 0.47317  0.47317  0.96131  Biso   1.000  C
  C34      1.0000 0.47317  0.47317  0.09235  Biso   1.000  C
  C35      1.0000 0.96131  0.09235  0.47317  Biso   1.000  C
  C36      1.0000 0.09235  0.96131  0.47317  Biso   1.000  C
  C37      1.0000 0.47317  0.96131  0.09235  Biso   1.000  C
  C38      1.0000 0.47317  0.09235  0.96131  Biso   1.000  C
  C39      1.0000 0.96131  0.47317  0.47317  Biso   1.000  C
  C40      1.0000 0.09235  0.47317  0.47317  Biso   1.000  C
  C41      1.0000 0.47317  0.09235  0.47317  Biso   1.000  C
  C42      1.0000 0.47317  0.96131  0.47317  Biso   1.000  C
  C43      1.0000 0.96131  0.47317  0.09235  Biso   1.000  C
  C44      1.0000 0.09235  0.47317  0.96131  Biso   1.000  C
  C45      1.0000 0.52683  0.52683  0.03869  Biso   1.000  C
  C46      1.0000 0.52683  0.52683  0.90765  Biso   1.000  C
  C47      1.0000 0.90765  0.03869  0.52683  Biso   1.000  C
  C48      1.0000 0.03869  0.90765  0.52683  Biso   1.000  C
  C49      1.0000 0.03869  0.52683  0.90765  Biso   1.000  C
  C50      1.0000 0.90765  0.52683  0.03869  Biso   1.000  C
  C51      1.0000 0.52683  0.03869  0.52683  Biso   1.000  C
  C52      1.0000 0.52683  0.90765  0.52683  Biso   1.000  C
  C53      1.0000 0.90765  0.52683  0.52683  Biso   1.000  C
  C54      1.0000 0.03869  0.52683  0.52683  Biso   1.000  C
  C55      1.0000 0.52683  0.03869  0.90765  Biso   1.000  C
  C56      1.0000 0.52683  0.90765  0.03869  Biso   1.000  C
  C57      1.0000 0.38843  0.38843  0.11157  Biso   1.000  C
  C58      1.0000 0.44641  0.44641  0.05359  Biso   1.000  C
  C59      1.0000 0.11157  0.11157  0.38843  Biso   1.000  C
  C60      1.0000 0.05359  0.05359  0.44641  Biso   1.000  C
  C61      1.0000 0.38843  0.11157  0.11157  Biso   1.000  C
  C62      1.0000 0.44641  0.05359  0.05359  Biso   1.000  C
  C63      1.0000 0.11157  0.38843  0.38843  Biso   1.000  C
  C64      1.0000 0.05359  0.44641  0.44641  Biso   1.000  C
  C65      1.0000 0.38843  0.11157  0.38843  Biso   1.000  C
  C66      1.0000 0.44641  0.05359  0.44641  Biso   1.000  C
  C67      1.0000 0.11157  0.38843  0.11157  Biso   1.000  C
  C68      1.0000 0.05359  0.44641  0.05359  Biso   1.000  C
  C69      1.0000 0.61157  0.61157  0.88843  Biso   1.000  C
  C70      1.0000 0.55359  0.55359  0.94641  Biso   1.000  C
  C71      1.0000 0.88843  0.88843  0.61157  Biso   1.000  C
  C72      1.0000 0.94641  0.94641  0.55359  Biso   1.000  C
  C73      1.0000 0.88843  0.61157  0.88843  Biso   1.000  C
  C74      1.0000 0.94641  0.55359  0.94641  Biso   1.000  C
  C75      1.0000 0.61157  0.88843  0.61157  Biso   1.000  C
  C76      1.0000 0.55359  0.94641  0.55359  Biso   1.000  C
  C77      1.0000 0.88843  0.61157  0.61157  Biso   1.000  C
  C78      1.0000 0.94641  0.55359  0.55359  Biso   1.000  C
  C79      1.0000 0.61157  0.88843  0.88843  Biso   1.000  C
  C80      1.0000 0.55359  0.94641  0.94641  Biso   1.000  C
  C81      1.0000 0.25000  0.25000  0.25000  Biso   1.000  C
  C82      1.0000 0.75000  0.75000  0.75000  Biso   1.000  C
  C83      1.0000 0.36629  0.36629  0.07237  Biso   1.000  C
  C84      1.0000 0.36629  0.36629  0.19505  Biso   1.000  C
  C85      1.0000 0.07237  0.19505  0.36629  Biso   1.000  C
  C86      1.0000 0.19505  0.07237  0.36629  Biso   1.000  C
  C87      1.0000 0.36629  0.07237  0.19505  Biso   1.000  C
  C88      1.0000 0.36629  0.19505  0.07237  Biso   1.000  C
  C89      1.0000 0.07237  0.36629  0.36629  Biso   1.000  C
  C90      1.0000 0.19505  0.36629  0.36629  Biso   1.000  C
  C91      1.0000 0.36629  0.19505  0.36629  Biso   1.000  C
  C92      1.0000 0.36629  0.07237  0.36629  Biso   1.000  C
  C93      1.0000 0.07237  0.36629  0.19505  Biso   1.000  C
  C94      1.0000 0.19505  0.36629  0.07237  Biso   1.000  C
  C95      1.0000 0.63371  0.63371  0.92763  Biso   1.000  C
  C96      1.0000 0.63371  0.63371  0.80495  Biso   1.000  C
  C97      1.0000 0.80495  0.92763  0.63371  Biso   1.000  C
  C98      1.0000 0.92763  0.80495  0.63371  Biso   1.000  C
  C99      1.0000 0.92763  0.63371  0.80495  Biso   1.000  C
  C100     1.0000 0.80495  0.63371  0.92763  Biso   1.000  C
  C101     1.0000 0.63371  0.92763  0.63371  Biso   1.000  C
  C102     1.0000 0.63371  0.80495  0.63371  Biso   1.000  C
  C103     1.0000 0.80495  0.63371  0.63371  Biso   1.000  C
  C104     1.0000 0.92763  0.63371  0.63371  Biso   1.000  C
  C105     1.0000 0.63371  0.92763  0.80495  Biso   1.000  C
  C106     1.0000 0.63371  0.80495  0.92763  Biso   1.000  C
  O1       1.0000 0.07030  0.59599  0.59001  Biso   1.000  O
  O2       1.0000 0.48613  0.18004  0.00603  Biso   1.000  O
  O3       1.0000 0.48613  0.00625  0.00603  Biso   1.000  O
  O4       1.0000 0.07030  0.42219  0.59001  Biso   1.000  O
  O5       1.0000 0.06985  0.59633  0.41597  Biso   1.000  O
  O6       1.0000 0.89611  0.59614  0.59011  Biso   1.000  O
  O7       1.0000 0.48659  0.00591  0.18007  Biso   1.000  O
  O8       1.0000 0.66032  0.00610  0.00593  Biso   1.000  O
  O9       1.0000 0.23860  0.23749  0.44731  Biso   1.000  O
  O10      1.0000 0.22611  0.45716  0.23689  Biso   1.000  O
  O11      1.0000 0.93661  0.23857  0.74918  Biso   1.000  O
  O12      1.0000 0.71424  0.45465  0.75147  Biso   1.000  O
  O13      1.0000 0.23941  0.45664  0.74670  Biso   1.000  O
  O14      1.0000 0.31784  0.84714  0.14873  Biso   1.000  O
  O15      1.0000 0.33032  0.84395  0.35915  Biso   1.000  O
  O16      1.0000 0.61983  0.84805  0.84686  Biso   1.000  O
  O17      1.0000 0.84220  0.84407  0.84457  Biso   1.000  O
  O18      1.0000 0.31702  0.36645  0.84934  Biso   1.000  O
  O19      1.0000 0.31783  0.36475  0.14873  Biso   1.000  O
  O20      1.0000 0.33033  0.14507  0.35915  Biso   1.000  O
  O21      1.0000 0.61983  0.36367  0.84686  Biso   1.000  O
  O22      1.0000 0.84220  0.14758  0.84457  Biso   1.000  O
  O23      1.0000 0.31703  0.14559  0.84934  Biso   1.000  O
  O24      1.0000 0.23860  0.75510  0.44731  Biso   1.000  O
  O25      1.0000 0.22611  0.75829  0.23689  Biso   1.000  O
  O26      1.0000 0.93661  0.75419  0.74918  Biso   1.000  O
  O27      1.0000 0.71424  0.75816  0.75147  Biso   1.000  O
  O28      1.0000 0.23941  0.23579  0.74670  Biso   1.000  O
  O29      1.0000 0.71512  0.75699  0.44940  Biso   1.000  O
  O30      1.0000 0.92768  0.75809  0.23460  Biso   1.000  O
  O31      1.0000 0.84132  0.84525  0.14664  Biso   1.000  O
  O32      1.0000 0.62876  0.84415  0.36144  Biso   1.000  O
  O33      1.0000 0.16401  0.41373  0.41113  Biso   1.000  O
  O34      1.0000 0.22323  0.35599  0.35030  Biso   1.000  O
  O35      1.0000 0.25629  0.26303  0.38549  Biso   1.000  O
  O36      1.0000 0.24539  0.39545  0.26273  Biso   1.000  O
  O37      1.0000 0.88666  0.41689  0.68656  Biso   1.000  O
  O38      1.0000 0.83290  0.35875  0.74153  Biso   1.000  O
  O39      1.0000 0.87480  0.26461  0.76707  Biso   1.000  O
  O40      1.0000 0.74177  0.39304  0.76886  Biso   1.000  O
  O41      1.0000 0.25521  0.39493  0.76668  Biso   1.000  O
  O42      1.0000 0.39243  0.91263  0.18491  Biso   1.000  O
  O43      1.0000 0.33320  0.85330  0.24574  Biso   1.000  O
  O44      1.0000 0.30015  0.82855  0.21055  Biso   1.000  O
  O45      1.0000 0.31104  0.82735  0.33331  Biso   1.000  O
  O46      1.0000 0.66978  0.91384  0.90948  Biso   1.000  O
  O47      1.0000 0.72354  0.85689  0.85451  Biso   1.000  O
  O48      1.0000 0.68164  0.83016  0.82897  Biso   1.000  O
  O49      1.0000 0.81467  0.82738  0.82718  Biso   1.000  O
  O50      1.0000 0.30122  0.34051  0.82936  Biso   1.000  O
  O51      1.0000 0.39243  0.18851  0.18491  Biso   1.000  O
  O52      1.0000 0.33320  0.24625  0.24574  Biso   1.000  O
  O53      1.0000 0.30015  0.33920  0.21055  Biso   1.000  O
  O54      1.0000 0.31105  0.20679  0.33331  Biso   1.000  O
  O55      1.0000 0.66978  0.18534  0.90948  Biso   1.000  O
  O56      1.0000 0.72354  0.24348  0.85451  Biso   1.000  O
  O57      1.0000 0.68164  0.33763  0.82897  Biso   1.000  O
  O58      1.0000 0.81467  0.20920  0.82718  Biso   1.000  O
  O59      1.0000 0.30122  0.20731  0.82936  Biso   1.000  O
  O60      1.0000 0.16401  0.68961  0.41113  Biso   1.000  O
  O61      1.0000 0.22324  0.74894  0.35030  Biso   1.000  O
  O62      1.0000 0.25629  0.77368  0.38549  Biso   1.000  O
  O63      1.0000 0.24539  0.77488  0.26273  Biso   1.000  O
  O64      1.0000 0.88666  0.68840  0.68656  Biso   1.000  O
  O65      1.0000 0.83290  0.74534  0.74153  Biso   1.000  O
  O66      1.0000 0.87479  0.77207  0.76707  Biso   1.000  O
  O67      1.0000 0.74177  0.77486  0.76886  Biso   1.000  O
  O68      1.0000 0.25522  0.26172  0.76668  Biso   1.000  O
  O69      1.0000 0.89330  0.69040  0.40437  Biso   1.000  O
  O70      1.0000 0.83149  0.74725  0.35249  Biso   1.000  O
  O71      1.0000 0.74215  0.77428  0.38778  Biso   1.000  O
  O72      1.0000 0.86597  0.77548  0.26154  Biso   1.000  O
  O73      1.0000 0.16253  0.41868  0.67861  Biso   1.000  O
  O74      1.0000 0.22216  0.35736  0.74163  Biso   1.000  O
  O75      1.0000 0.66313  0.91183  0.19167  Biso   1.000  O
  O76      1.0000 0.72495  0.85499  0.24355  Biso   1.000  O
  O77      1.0000 0.81429  0.82796  0.20826  Biso   1.000  O
  O78      1.0000 0.69047  0.82676  0.33450  Biso   1.000  O
  O79      1.0000 0.39391  0.18355  0.91743  Biso   1.000  O
  O80      1.0000 0.33428  0.24488  0.85441  Biso   1.000  O
  O81      1.0000 0.14403  0.49860  0.36551  Biso   1.000  O
  O82      1.0000 0.14533  0.37009  0.49483  Biso   1.000  O
  O83      1.0000 0.84700  0.49958  0.66022  Biso   1.000  O
  O84      1.0000 0.97242  0.37307  0.66420  Biso   1.000  O
  O85      1.0000 0.14355  0.50057  0.66141  Biso   1.000  O
  O86      1.0000 0.41241  0.93191  0.23053  Biso   1.000  O
  O87      1.0000 0.41111  0.93400  0.10121  Biso   1.000  O
  O88      1.0000 0.70943  0.93053  0.93582  Biso   1.000  O
  O89      1.0000 0.58402  0.93341  0.93184  Biso   1.000  O
  O90      1.0000 0.41289  0.22927  0.93463  Biso   1.000  O
  O91      1.0000 0.41241  0.10364  0.23053  Biso   1.000  O
  O92      1.0000 0.41111  0.23214  0.10121  Biso   1.000  O
  O93      1.0000 0.70943  0.10266  0.93582  Biso   1.000  O
  O94      1.0000 0.58402  0.22917  0.93184  Biso   1.000  O
  O95      1.0000 0.41289  0.10166  0.93463  Biso   1.000  O
  O96      1.0000 0.14403  0.67033  0.36551  Biso   1.000  O
  O97      1.0000 0.14533  0.66824  0.49483  Biso   1.000  O
  O98      1.0000 0.84701  0.67171  0.66022  Biso   1.000  O
  O99      1.0000 0.97242  0.66882  0.66420  Biso   1.000  O
  O100     1.0000 0.14355  0.37297  0.66141  Biso   1.000  O
  O101     1.0000 0.02737  0.55245  0.54621  Biso   1.000  O
  O102     1.0000 0.97360  0.66934  0.36621  Biso   1.000  O
  O103     1.0000 0.84839  0.67162  0.48687  Biso   1.000  O
  O104     1.0000 0.52907  0.04978  0.04983  Biso   1.000  O
  O105     1.0000 0.58284  0.93290  0.22983  Biso   1.000  O
  O106     1.0000 0.70805  0.93062  0.10917  Biso   1.000  O
