data_image0
_cell_length_a       18.2704
_cell_length_b       18.2704
_cell_length_c       18.2704
_cell_angle_alpha    60
_cell_angle_beta     60
_cell_angle_gamma    60

_symmetry_space_group_name_H-M    "P 1"
_symmetry_int_tables_number       1

loop_
  _symmetry_equiv_pos_as_xyz
  'x, y, z'

loop_
  _atom_site_label
  _atom_site_occupancy
  _atom_site_fract_x
  _atom_site_fract_y
  _atom_site_fract_z
  _atom_site_thermal_displace_type
  _atom_site_B_iso_or_equiv
  _atom_site_type_symbol
  Zn1      1.0000 0.29350  0.29349  0.11952  Biso   1.000  Zn
  Zn2      1.0000 0.29350  0.29349  0.29349  Biso   1.000  Zn
  Zn3      1.0000 0.11953  0.29349  0.29349  Biso   1.000  Zn
  Zn4      1.0000 0.29350  0.11952  0.29349  Biso   1.000  Zn
  Zn5      1.0000 0.70650  0.70651  0.88048  Biso   1.000  Zn
  Zn6      1.0000 0.70650  0.70651  0.70651  Biso   1.000  Zn
  Zn7      1.0000 0.70650  0.88048  0.70651  Biso   1.000  Zn
  Zn8      1.0000 0.88047  0.70651  0.70651  Biso   1.000  Zn
  H1       1.0000 0.45540  0.45540  0.93560  Biso   1.000  H
  H2       1.0000 0.45540  0.45540  0.15360  Biso   1.000  H
  H3       1.0000 0.93560  0.15360  0.45540  Biso   1.000  H
  H4       1.0000 0.15360  0.93560  0.45540  Biso   1.000  H
  H5       1.0000 0.45540  0.93560  0.15360  Biso   1.000  H
  H6       1.0000 0.45540  0.15360  0.93560  Biso   1.000  H
  H7       1.0000 0.93560  0.45540  0.45540  Biso   1.000  H
  H8       1.0000 0.15360  0.45540  0.45540  Biso   1.000  H
  H9       1.0000 0.45540  0.15360  0.45540  Biso   1.000  H
  H10      1.0000 0.45540  0.93560  0.45540  Biso   1.000  H
  H11      1.0000 0.93560  0.45540  0.15360  Biso   1.000  H
  H12      1.0000 0.15360  0.45540  0.93560  Biso   1.000  H
  H13      1.0000 0.54460  0.54460  0.06440  Biso   1.000  H
  H14      1.0000 0.54460  0.54460  0.84640  Biso   1.000  H
  H15      1.0000 0.84640  0.06440  0.54460  Biso   1.000  H
  H16      1.0000 0.06440  0.84640  0.54460  Biso   1.000  H
  H17      1.0000 0.06440  0.54460  0.84640  Biso   1.000  H
  H18      1.0000 0.84640  0.54460  0.06440  Biso   1.000  H
  H19      1.0000 0.54460  0.06440  0.54460  Biso   1.000  H
  H20      1.0000 0.54460  0.84640  0.54460  Biso   1.000  H
  H21      1.0000 0.84640  0.54460  0.54460  Biso   1.000  H
  H22      1.0000 0.06440  0.54460  0.54460  Biso   1.000  H
  H23      1.0000 0.54460  0.06440  0.84640  Biso   1.000  H
  H24      1.0000 0.54460  0.84640  0.06440  Biso   1.000  H
  C1       1.0000 0.47338  0.47338  0.96238  Biso   1.000  C
  C2       1.0000 0.47338  0.47338  0.09086  Biso   1.000  C
  C3       1.0000 0.96238  0.09086  0.47338  Biso   1.000  C
  C4       1.0000 0.09086  0.96238  0.47338  Biso   1.000  C
  C5       1.0000 0.47338  0.96238  0.09086  Biso   1.000  C
  C6       1.0000 0.47338  0.09086  0.96238  Biso   1.000  C
  C7       1.0000 0.96238  0.47338  0.47338  Biso   1.000  C
  C8       1.0000 0.09086  0.47338  0.47338  Biso   1.000  C
  C9       1.0000 0.47338  0.09086  0.47338  Biso   1.000  C
  C10      1.0000 0.47338  0.96238  0.47338  Biso   1.000  C
  C11      1.0000 0.96238  0.47338  0.09086  Biso   1.000  C
  C12      1.0000 0.09086  0.47338  0.96238  Biso   1.000  C
  C13      1.0000 0.52662  0.52662  0.03762  Biso   1.000  C
  C14      1.0000 0.52662  0.52662  0.90914  Biso   1.000  C
  C15      1.0000 0.90914  0.03762  0.52662  Biso   1.000  C
  C16      1.0000 0.03762  0.90914  0.52662  Biso   1.000  C
  C17      1.0000 0.03762  0.52662  0.90914  Biso   1.000  C
  C18      1.0000 0.90914  0.52662  0.03762  Biso   1.000  C
  C19      1.0000 0.52662  0.03762  0.52662  Biso   1.000  C
  C20      1.0000 0.52662  0.90914  0.52662  Biso   1.000  C
  C21      1.0000 0.90914  0.52662  0.52662  Biso   1.000  C
  C22      1.0000 0.03762  0.52662  0.52662  Biso   1.000  C
  C23      1.0000 0.52662  0.03762  0.90914  Biso   1.000  C
  C24      1.0000 0.52662  0.90914  0.03762  Biso   1.000  C
  C25      1.0000 0.38861  0.38861  0.11139  Biso   1.000  C
  C26      1.0000 0.44619  0.44619  0.05381  Biso   1.000  C
  C27      1.0000 0.11139  0.11139  0.38861  Biso   1.000  C
  C28      1.0000 0.05381  0.05381  0.44619  Biso   1.000  C
  C29      1.0000 0.38861  0.11139  0.11139  Biso   1.000  C
  C30      1.0000 0.44619  0.05381  0.05381  Biso   1.000  C
  C31      1.0000 0.11139  0.38861  0.38861  Biso   1.000  C
  C32      1.0000 0.05381  0.44619  0.44619  Biso   1.000  C
  C33      1.0000 0.38861  0.11139  0.38861  Biso   1.000  C
  C34      1.0000 0.44619  0.05381  0.44619  Biso   1.000  C
  C35      1.0000 0.11139  0.38861  0.11139  Biso   1.000  C
  C36      1.0000 0.05381  0.44619  0.05381  Biso   1.000  C
  C37      1.0000 0.61139  0.61139  0.88861  Biso   1.000  C
  C38      1.0000 0.55381  0.55381  0.94619  Biso   1.000  C
  C39      1.0000 0.88861  0.88861  0.61139  Biso   1.000  C
  C40      1.0000 0.94619  0.94619  0.55381  Biso   1.000  C
  C41      1.0000 0.88861  0.61139  0.88861  Biso   1.000  C
  C42      1.0000 0.94619  0.55381  0.94619  Biso   1.000  C
  C43      1.0000 0.61139  0.88861  0.61139  Biso   1.000  C
  C44      1.0000 0.55381  0.94619  0.55381  Biso   1.000  C
  C45      1.0000 0.88861  0.61139  0.61139  Biso   1.000  C
  C46      1.0000 0.94619  0.55381  0.55381  Biso   1.000  C
  C47      1.0000 0.61139  0.88861  0.88861  Biso   1.000  C
  C48      1.0000 0.55381  0.94619  0.94619  Biso   1.000  C
  O1       1.0000 0.25000  0.25000  0.25000  Biso   1.000  O
  O2       1.0000 0.75000  0.75000  0.75000  Biso   1.000  O
  O3       1.0000 0.36607  0.36607  0.07299  Biso   1.000  O
  O4       1.0000 0.36607  0.36607  0.19487  Biso   1.000  O
  O5       1.0000 0.07299  0.19487  0.36607  Biso   1.000  O
  O6       1.0000 0.19487  0.07299  0.36607  Biso   1.000  O
  O7       1.0000 0.36607  0.07299  0.19487  Biso   1.000  O
  O8       1.0000 0.36607  0.19487  0.07299  Biso   1.000  O
  O9       1.0000 0.07299  0.36607  0.36607  Biso   1.000  O
  O10      1.0000 0.19487  0.36607  0.36607  Biso   1.000  O
  O11      1.0000 0.36607  0.19487  0.36607  Biso   1.000  O
  O12      1.0000 0.36607  0.07299  0.36607  Biso   1.000  O
  O13      1.0000 0.07299  0.36607  0.19487  Biso   1.000  O
  O14      1.0000 0.19487  0.36607  0.07299  Biso   1.000  O
  O15      1.0000 0.63393  0.63393  0.92701  Biso   1.000  O
  O16      1.0000 0.63393  0.63393  0.80513  Biso   1.000  O
  O17      1.0000 0.80513  0.92701  0.63393  Biso   1.000  O
  O18      1.0000 0.92701  0.80513  0.63393  Biso   1.000  O
  O19      1.0000 0.92701  0.63393  0.80513  Biso   1.000  O
  O20      1.0000 0.80513  0.63393  0.92701  Biso   1.000  O
  O21      1.0000 0.63393  0.92701  0.63393  Biso   1.000  O
  O22      1.0000 0.63393  0.80513  0.63393  Biso   1.000  O
  O23      1.0000 0.80513  0.63393  0.63393  Biso   1.000  O
  O24      1.0000 0.92701  0.63393  0.63393  Biso   1.000  O
  O25      1.0000 0.63393  0.92701  0.80513  Biso   1.000  O
  O26      1.0000 0.63393  0.80513  0.92701  Biso   1.000  O
  Zn9      1.0000 0.50205  0.51957  0.33472  Biso   1.000  Zn
  Zn10     1.0000 0.50205  0.51957  0.50840  Biso   1.000  Zn
  Zn11     1.0000 0.32837  0.51957  0.50840  Biso   1.000  Zn
  Zn12     1.0000 0.50205  0.34589  0.50840  Biso   1.000  Zn
  Zn13     1.0000 0.91385  0.93137  0.09388  Biso   1.000  Zn
  Zn14     1.0000 0.91385  0.93137  0.92020  Biso   1.000  Zn
  Zn15     1.0000 0.91385  0.10505  0.92020  Biso   1.000  Zn
  Zn16     1.0000 0.08754  0.93137  0.92020  Biso   1.000  Zn
  H25      1.0000 0.66387  0.68139  0.14931  Biso   1.000  H
  H26      1.0000 0.66387  0.68139  0.36745  Biso   1.000  H
  H27      1.0000 0.14296  0.37862  0.67022  Biso   1.000  H
  H28      1.0000 0.36110  0.16048  0.67022  Biso   1.000  H
  H29      1.0000 0.66387  0.16048  0.36745  Biso   1.000  H
  H30      1.0000 0.66387  0.37862  0.14931  Biso   1.000  H
  H31      1.0000 0.14296  0.68139  0.67022  Biso   1.000  H
  H32      1.0000 0.36110  0.68139  0.67022  Biso   1.000  H
  H33      1.0000 0.66387  0.37862  0.67022  Biso   1.000  H
  H34      1.0000 0.66387  0.16048  0.67022  Biso   1.000  H
  H35      1.0000 0.14296  0.68139  0.36745  Biso   1.000  H
  H36      1.0000 0.36110  0.68139  0.14931  Biso   1.000  H
  H37      1.0000 0.75203  0.76955  0.27929  Biso   1.000  H
  H38      1.0000 0.75203  0.76955  0.06115  Biso   1.000  H
  H39      1.0000 0.05480  0.29046  0.75838  Biso   1.000  H
  H40      1.0000 0.27294  0.07232  0.75838  Biso   1.000  H
  H41      1.0000 0.27294  0.76955  0.06115  Biso   1.000  H
  H42      1.0000 0.05480  0.76955  0.27929  Biso   1.000  H
  H43      1.0000 0.75203  0.29046  0.75838  Biso   1.000  H
  H44      1.0000 0.75203  0.07232  0.75838  Biso   1.000  H
  H45      1.0000 0.05480  0.76955  0.75838  Biso   1.000  H
  H46      1.0000 0.27294  0.76955  0.75838  Biso   1.000  H
  H47      1.0000 0.75203  0.29046  0.06115  Biso   1.000  H
  H48      1.0000 0.75203  0.07232  0.27929  Biso   1.000  H
  C49      1.0000 0.68147  0.69899  0.17607  Biso   1.000  C
  C50      1.0000 0.68147  0.69899  0.30548  Biso   1.000  C
  C51      1.0000 0.16972  0.31666  0.68782  Biso   1.000  C
  C52      1.0000 0.29914  0.18724  0.68782  Biso   1.000  C
  C53      1.0000 0.68147  0.18724  0.30548  Biso   1.000  C
  C54      1.0000 0.68147  0.31666  0.17607  Biso   1.000  C
  C55      1.0000 0.16972  0.69899  0.68782  Biso   1.000  C
  C56      1.0000 0.29914  0.69899  0.68782  Biso   1.000  C
  C57      1.0000 0.68147  0.31666  0.68782  Biso   1.000  C
  C58      1.0000 0.68147  0.18724  0.68782  Biso   1.000  C
  C59      1.0000 0.16972  0.69899  0.30548  Biso   1.000  C
  C60      1.0000 0.29914  0.69899  0.17607  Biso   1.000  C
  C61      1.0000 0.73443  0.75195  0.25253  Biso   1.000  C
  C62      1.0000 0.73443  0.75195  0.12311  Biso   1.000  C
  C63      1.0000 0.11677  0.26370  0.74078  Biso   1.000  C
  C64      1.0000 0.24618  0.13428  0.74078  Biso   1.000  C
  C65      1.0000 0.24618  0.75195  0.12311  Biso   1.000  C
  C66      1.0000 0.11677  0.75195  0.25253  Biso   1.000  C
  C67      1.0000 0.73443  0.26370  0.74078  Biso   1.000  C
  C68      1.0000 0.73443  0.13428  0.74078  Biso   1.000  C
  C69      1.0000 0.11677  0.75195  0.74078  Biso   1.000  C
  C70      1.0000 0.24618  0.75195  0.74078  Biso   1.000  C
  C71      1.0000 0.73443  0.26370  0.12311  Biso   1.000  C
  C72      1.0000 0.73443  0.13428  0.25253  Biso   1.000  C
  C73      1.0000 0.59683  0.61434  0.32679  Biso   1.000  C
  C74      1.0000 0.65430  0.67182  0.26931  Biso   1.000  C
  C75      1.0000 0.32044  0.33796  0.60317  Biso   1.000  C
  C76      1.0000 0.26297  0.28049  0.66064  Biso   1.000  C
  C77      1.0000 0.59683  0.33796  0.32679  Biso   1.000  C
  C78      1.0000 0.65430  0.28049  0.26931  Biso   1.000  C
  C79      1.0000 0.32044  0.61434  0.60317  Biso   1.000  C
  C80      1.0000 0.26297  0.67182  0.66064  Biso   1.000  C
  C81      1.0000 0.59683  0.33796  0.60317  Biso   1.000  C
  C82      1.0000 0.65430  0.28049  0.66064  Biso   1.000  C
  C83      1.0000 0.32044  0.61434  0.32679  Biso   1.000  C
  C84      1.0000 0.26297  0.67182  0.26931  Biso   1.000  C
  C85      1.0000 0.81908  0.83660  0.10181  Biso   1.000  C
  C86      1.0000 0.76161  0.77912  0.15928  Biso   1.000  C
  C87      1.0000 0.09546  0.11298  0.82542  Biso   1.000  C
  C88      1.0000 0.15294  0.17046  0.76795  Biso   1.000  C
  C89      1.0000 0.09546  0.83660  0.10181  Biso   1.000  C
  C90      1.0000 0.15294  0.77912  0.15928  Biso   1.000  C
  C91      1.0000 0.81908  0.11298  0.82542  Biso   1.000  C
  C92      1.0000 0.76161  0.17046  0.76795  Biso   1.000  C
  C93      1.0000 0.09546  0.83660  0.82542  Biso   1.000  C
  C94      1.0000 0.15294  0.77912  0.76795  Biso   1.000  C
  C95      1.0000 0.81908  0.11298  0.10181  Biso   1.000  C
  C96      1.0000 0.76161  0.17046  0.15928  Biso   1.000  C
  O27      1.0000 0.45863  0.47615  0.46498  Biso   1.000  O
  O28      1.0000 0.95727  0.97479  0.96362  Biso   1.000  O
  O29      1.0000 0.57435  0.59187  0.28857  Biso   1.000  O
  O30      1.0000 0.57435  0.59187  0.40996  Biso   1.000  O
  O31      1.0000 0.28222  0.42113  0.58069  Biso   1.000  O
  O32      1.0000 0.40361  0.29974  0.58069  Biso   1.000  O
  O33      1.0000 0.57435  0.29974  0.40996  Biso   1.000  O
  O34      1.0000 0.57435  0.42113  0.28857  Biso   1.000  O
  O35      1.0000 0.28222  0.59187  0.58069  Biso   1.000  O
  O36      1.0000 0.40361  0.59187  0.58069  Biso   1.000  O
  O37      1.0000 0.57435  0.42113  0.58069  Biso   1.000  O
  O38      1.0000 0.57435  0.29974  0.58069  Biso   1.000  O
  O39      1.0000 0.28222  0.59187  0.40996  Biso   1.000  O
  O40      1.0000 0.40361  0.59187  0.28857  Biso   1.000  O
  O41      1.0000 0.84156  0.85908  0.14003  Biso   1.000  O
  O42      1.0000 0.84156  0.85908  0.01864  Biso   1.000  O
  O43      1.0000 0.01229  0.15120  0.84790  Biso   1.000  O
  O44      1.0000 0.13368  0.02981  0.84790  Biso   1.000  O
  O45      1.0000 0.13368  0.85908  0.01864  Biso   1.000  O
  O46      1.0000 0.01229  0.85908  0.14003  Biso   1.000  O
  O47      1.0000 0.84156  0.15120  0.84790  Biso   1.000  O
  O48      1.0000 0.84156  0.02981  0.84790  Biso   1.000  O
  O49      1.0000 0.01229  0.85908  0.84790  Biso   1.000  O
  O50      1.0000 0.13368  0.85908  0.84790  Biso   1.000  O
  O51      1.0000 0.84156  0.15120  0.01864  Biso   1.000  O
  O52      1.0000 0.84156  0.02981  0.14003  Biso   1.000  O
