data_image0
_cell_length_a       18.3017
_cell_length_b       18.3017
_cell_length_c       18.3017
_cell_angle_alpha    60
_cell_angle_beta     60
_cell_angle_gamma    60

_symmetry_space_group_name_H-M    "P 1"
_symmetry_int_tables_number       1

loop_
  _symmetry_equiv_pos_as_xyz
  'x, y, z'

loop_
  _atom_site_label
  _atom_site_occupancy
  _atom_site_fract_x
  _atom_site_fract_y
  _atom_site_fract_z
  _atom_site_thermal_displace_type
  _atom_site_B_iso_or_equiv
  _atom_site_type_symbol
  C1       1.0000 0.29342  0.29343  0.11972  Biso   1.000  C
  C2       1.0000 0.29343  0.29342  0.29343  Biso   1.000  C
  C3       1.0000 0.11972  0.29343  0.29342  Biso   1.000  C
  C4       1.0000 0.29343  0.11972  0.29343  Biso   1.000  C
  C5       1.0000 0.70657  0.70658  0.88028  Biso   1.000  C
  C6       1.0000 0.70657  0.70658  0.70657  Biso   1.000  C
  C7       1.0000 0.70658  0.88028  0.70657  Biso   1.000  C
  C8       1.0000 0.88029  0.70657  0.70657  Biso   1.000  C
  C9       1.0000 0.45510  0.45510  0.93470  Biso   1.000  C
  C10      1.0000 0.45510  0.45510  0.15510  Biso   1.000  C
  C11      1.0000 0.93470  0.15510  0.45510  Biso   1.000  C
  C12      1.0000 0.15510  0.93470  0.45510  Biso   1.000  C
  C13      1.0000 0.45510  0.93470  0.15510  Biso   1.000  C
  C14      1.0000 0.45510  0.15510  0.93470  Biso   1.000  C
  C15      1.0000 0.93470  0.45510  0.45510  Biso   1.000  C
  C16      1.0000 0.15510  0.45510  0.45510  Biso   1.000  C
  C17      1.0000 0.45510  0.15510  0.45510  Biso   1.000  C
  C18      1.0000 0.45510  0.93470  0.45510  Biso   1.000  C
  C19      1.0000 0.93470  0.45510  0.15510  Biso   1.000  C
  C20      1.0000 0.15510  0.45510  0.93470  Biso   1.000  C
  C21      1.0000 0.54490  0.54490  0.06530  Biso   1.000  C
  C22      1.0000 0.54490  0.54490  0.84490  Biso   1.000  C
  C23      1.0000 0.84490  0.06530  0.54490  Biso   1.000  C
  C24      1.0000 0.06530  0.84490  0.54490  Biso   1.000  C
  C25      1.0000 0.06530  0.54490  0.84490  Biso   1.000  C
  C26      1.0000 0.84490  0.54490  0.06530  Biso   1.000  C
  C27      1.0000 0.54490  0.06530  0.54490  Biso   1.000  C
  C28      1.0000 0.54490  0.84490  0.54490  Biso   1.000  C
  C29      1.0000 0.84490  0.54490  0.54490  Biso   1.000  C
  C30      1.0000 0.06530  0.54490  0.54490  Biso   1.000  C
  C31      1.0000 0.54490  0.06530  0.84490  Biso   1.000  C
  C32      1.0000 0.54490  0.84490  0.06530  Biso   1.000  C
  C33      1.0000 0.47334  0.47334  0.96156  Biso   1.000  C
  C34      1.0000 0.47334  0.47334  0.09176  Biso   1.000  C
  C35      1.0000 0.96156  0.09176  0.47334  Biso   1.000  C
  C36      1.0000 0.09176  0.96156  0.47334  Biso   1.000  C
  C37      1.0000 0.47334  0.96156  0.09176  Biso   1.000  C
  C38      1.0000 0.47334  0.09176  0.96156  Biso   1.000  C
  C39      1.0000 0.96156  0.47334  0.47334  Biso   1.000  C
  C40      1.0000 0.09176  0.47334  0.47334  Biso   1.000  C
  C41      1.0000 0.47334  0.09176  0.47334  Biso   1.000  C
  C42      1.0000 0.47334  0.96156  0.47334  Biso   1.000  C
  C43      1.0000 0.96156  0.47334  0.09176  Biso   1.000  C
  C44      1.0000 0.09176  0.47334  0.96156  Biso   1.000  C
  C45      1.0000 0.52666  0.52666  0.03844  Biso   1.000  C
  C46      1.0000 0.52666  0.52666  0.90824  Biso   1.000  C
  C47      1.0000 0.90824  0.03844  0.52666  Biso   1.000  C
  C48      1.0000 0.03844  0.90824  0.52666  Biso   1.000  C
  C49      1.0000 0.03844  0.52666  0.90824  Biso   1.000  C
  C50      1.0000 0.90824  0.52666  0.03844  Biso   1.000  C
  C51      1.0000 0.52666  0.03844  0.52666  Biso   1.000  C
  C52      1.0000 0.52666  0.90824  0.52666  Biso   1.000  C
  C53      1.0000 0.90824  0.52666  0.52666  Biso   1.000  C
  C54      1.0000 0.03844  0.52666  0.52666  Biso   1.000  C
  C55      1.0000 0.52666  0.03844  0.90824  Biso   1.000  C
  C56      1.0000 0.52666  0.90824  0.03844  Biso   1.000  C
  C57      1.0000 0.38843  0.38843  0.11157  Biso   1.000  C
  C58      1.0000 0.44642  0.44642  0.05358  Biso   1.000  C
  C59      1.0000 0.11157  0.11157  0.38843  Biso   1.000  C
  C60      1.0000 0.05358  0.05358  0.44642  Biso   1.000  C
  C61      1.0000 0.38843  0.11157  0.11157  Biso   1.000  C
  C62      1.0000 0.44642  0.05358  0.05358  Biso   1.000  C
  C63      1.0000 0.11157  0.38843  0.38843  Biso   1.000  C
  C64      1.0000 0.05358  0.44642  0.44642  Biso   1.000  C
  C65      1.0000 0.38843  0.11157  0.38843  Biso   1.000  C
  C66      1.0000 0.44642  0.05358  0.44642  Biso   1.000  C
  C67      1.0000 0.11157  0.38843  0.11157  Biso   1.000  C
  C68      1.0000 0.05358  0.44642  0.05358  Biso   1.000  C
  C69      1.0000 0.61157  0.61157  0.88843  Biso   1.000  C
  C70      1.0000 0.55358  0.55358  0.94642  Biso   1.000  C
  C71      1.0000 0.88843  0.88843  0.61157  Biso   1.000  C
  C72      1.0000 0.94642  0.94642  0.55358  Biso   1.000  C
  C73      1.0000 0.88843  0.61157  0.88843  Biso   1.000  C
  C74      1.0000 0.94642  0.55358  0.94642  Biso   1.000  C
  C75      1.0000 0.61157  0.88843  0.61157  Biso   1.000  C
  C76      1.0000 0.55358  0.94642  0.55358  Biso   1.000  C
  C77      1.0000 0.88843  0.61157  0.61157  Biso   1.000  C
  C78      1.0000 0.94642  0.55358  0.55358  Biso   1.000  C
  C79      1.0000 0.61157  0.88843  0.88843  Biso   1.000  C
  C80      1.0000 0.55358  0.94642  0.94642  Biso   1.000  C
  C81      1.0000 0.25000  0.25000  0.25000  Biso   1.000  C
  C82      1.0000 0.75000  0.75000  0.75000  Biso   1.000  C
  C83      1.0000 0.36609  0.36609  0.07295  Biso   1.000  C
  C84      1.0000 0.36609  0.36609  0.19487  Biso   1.000  C
  C85      1.0000 0.07295  0.19487  0.36609  Biso   1.000  C
  C86      1.0000 0.19487  0.07295  0.36609  Biso   1.000  C
  C87      1.0000 0.36609  0.07295  0.19487  Biso   1.000  C
  C88      1.0000 0.36609  0.19487  0.07295  Biso   1.000  C
  C89      1.0000 0.07295  0.36609  0.36609  Biso   1.000  C
  C90      1.0000 0.19487  0.36609  0.36609  Biso   1.000  C
  C91      1.0000 0.36609  0.19487  0.36609  Biso   1.000  C
  C92      1.0000 0.36609  0.07295  0.36609  Biso   1.000  C
  C93      1.0000 0.07295  0.36609  0.19487  Biso   1.000  C
  C94      1.0000 0.19487  0.36609  0.07295  Biso   1.000  C
  C95      1.0000 0.63391  0.63391  0.92705  Biso   1.000  C
  C96      1.0000 0.63391  0.63391  0.80513  Biso   1.000  C
  C97      1.0000 0.80513  0.92705  0.63391  Biso   1.000  C
  C98      1.0000 0.92705  0.80513  0.63391  Biso   1.000  C
  C99      1.0000 0.92705  0.63391  0.80513  Biso   1.000  C
  C100     1.0000 0.80513  0.63391  0.92705  Biso   1.000  C
  C101     1.0000 0.63391  0.92705  0.63391  Biso   1.000  C
  C102     1.0000 0.63391  0.80513  0.63391  Biso   1.000  C
  C103     1.0000 0.80513  0.63391  0.63391  Biso   1.000  C
  C104     1.0000 0.92705  0.63391  0.63391  Biso   1.000  C
  C105     1.0000 0.63391  0.92705  0.80513  Biso   1.000  C
  C106     1.0000 0.63391  0.80513  0.92705  Biso   1.000  C
  O1       1.0000 0.59089  0.07958  0.72115  Biso   1.000  O
  O2       1.0000 0.59089  0.25242  0.72115  Biso   1.000  O
  O3       1.0000 0.41805  0.25242  0.72115  Biso   1.000  O
  O4       1.0000 0.59089  0.25242  0.54830  Biso   1.000  O
  O5       1.0000 0.00141  0.66702  0.13575  Biso   1.000  O
  O6       1.0000 0.00141  0.83987  0.13575  Biso   1.000  O
  O7       1.0000 0.17425  0.66702  0.13575  Biso   1.000  O
  O8       1.0000 0.00141  0.66702  0.30859  Biso   1.000  O
  O9       1.0000 0.46046  0.89605  0.87813  Biso   1.000  O
  O10      1.0000 0.74787  0.40940  0.59071  Biso   1.000  O
  O11      1.0000 0.23452  0.12199  0.87813  Biso   1.000  O
  O12      1.0000 0.74787  0.40940  0.36478  Biso   1.000  O
  O13      1.0000 0.23452  0.40940  0.59071  Biso   1.000  O
  O14      1.0000 0.74787  0.12199  0.87813  Biso   1.000  O
  O15      1.0000 0.46046  0.40940  0.36478  Biso   1.000  O
  O16      1.0000 0.74787  0.89605  0.87813  Biso   1.000  O
  O17      1.0000 0.74787  0.12199  0.36478  Biso   1.000  O
  O18      1.0000 0.46046  0.40940  0.87813  Biso   1.000  O
  O19      1.0000 0.74787  0.89605  0.59071  Biso   1.000  O
  O20      1.0000 0.23452  0.40940  0.87813  Biso   1.000  O
  O21      1.0000 0.13184  0.51004  0.97877  Biso   1.000  O
  O22      1.0000 0.84443  0.02339  0.26618  Biso   1.000  O
  O23      1.0000 0.35778  0.51004  0.97877  Biso   1.000  O
  O24      1.0000 0.84443  0.79745  0.49212  Biso   1.000  O
  O25      1.0000 0.35778  0.51004  0.26618  Biso   1.000  O
  O26      1.0000 0.84443  0.02339  0.97877  Biso   1.000  O
  O27      1.0000 0.13184  0.51004  0.49212  Biso   1.000  O
  O28      1.0000 0.84443  0.79745  0.97877  Biso   1.000  O
  O29      1.0000 0.84443  0.51004  0.49212  Biso   1.000  O
  O30      1.0000 0.13184  0.02339  0.97877  Biso   1.000  O
  O31      1.0000 0.84443  0.51004  0.26618  Biso   1.000  O
  O32      1.0000 0.35778  0.79745  0.97877  Biso   1.000  O
  O33      1.0000 0.39020  0.92160  0.90048  Biso   1.000  O
  O34      1.0000 0.77023  0.43176  0.52046  Biso   1.000  O
  O35      1.0000 0.26007  0.05173  0.90048  Biso   1.000  O
  O36      1.0000 0.77023  0.43176  0.39032  Biso   1.000  O
  O37      1.0000 0.26007  0.43176  0.52046  Biso   1.000  O
  O38      1.0000 0.77023  0.05173  0.90048  Biso   1.000  O
  O39      1.0000 0.39020  0.43176  0.39032  Biso   1.000  O
  O40      1.0000 0.77023  0.92160  0.90048  Biso   1.000  O
  O41      1.0000 0.77023  0.05173  0.39032  Biso   1.000  O
  O42      1.0000 0.39020  0.43176  0.90048  Biso   1.000  O
  O43      1.0000 0.77023  0.92160  0.52046  Biso   1.000  O
  O44      1.0000 0.26007  0.43176  0.90048  Biso   1.000  O
  O45      1.0000 0.20210  0.48769  0.95641  Biso   1.000  O
  O46      1.0000 0.82207  0.99784  0.33643  Biso   1.000  O
  O47      1.0000 0.33223  0.48769  0.95641  Biso   1.000  O
  O48      1.0000 0.82207  0.86771  0.46657  Biso   1.000  O
  O49      1.0000 0.33223  0.48769  0.33643  Biso   1.000  O
  O50      1.0000 0.82207  0.99784  0.95641  Biso   1.000  O
  O51      1.0000 0.20210  0.48769  0.46657  Biso   1.000  O
  O52      1.0000 0.82207  0.86771  0.95641  Biso   1.000  O
  O53      1.0000 0.82207  0.48769  0.46657  Biso   1.000  O
  O54      1.0000 0.20210  0.99784  0.95641  Biso   1.000  O
  O55      1.0000 0.82207  0.48769  0.33643  Biso   1.000  O
  O56      1.0000 0.33223  0.86771  0.95641  Biso   1.000  O
  O57      1.0000 0.40867  0.07020  0.81695  Biso   1.000  O
  O58      1.0000 0.35228  0.01381  0.87334  Biso   1.000  O
  O59      1.0000 0.68670  0.34823  0.53892  Biso   1.000  O
  O60      1.0000 0.74308  0.40461  0.48254  Biso   1.000  O
  O61      1.0000 0.40867  0.34823  0.53892  Biso   1.000  O
  O62      1.0000 0.35228  0.40461  0.48254  Biso   1.000  O
  O63      1.0000 0.68670  0.07020  0.81695  Biso   1.000  O
  O64      1.0000 0.74308  0.01381  0.87334  Biso   1.000  O
  O65      1.0000 0.68670  0.07020  0.53892  Biso   1.000  O
  O66      1.0000 0.74308  0.01381  0.48254  Biso   1.000  O
  O67      1.0000 0.40867  0.34823  0.81695  Biso   1.000  O
  O68      1.0000 0.35228  0.40461  0.87334  Biso   1.000  O
  O69      1.0000 0.18363  0.57122  0.03994  Biso   1.000  O
  O70      1.0000 0.24002  0.51483  0.98356  Biso   1.000  O
  O71      1.0000 0.90560  0.84925  0.31797  Biso   1.000  O
  O72      1.0000 0.84922  0.90563  0.37436  Biso   1.000  O
  O73      1.0000 0.18363  0.57122  0.31797  Biso   1.000  O
  O74      1.0000 0.24002  0.51483  0.37436  Biso   1.000  O
  O75      1.0000 0.90560  0.84925  0.03994  Biso   1.000  O
  O76      1.0000 0.84922  0.90563  0.98356  Biso   1.000  O
  O77      1.0000 0.90560  0.57122  0.31797  Biso   1.000  O
  O78      1.0000 0.84922  0.51483  0.37436  Biso   1.000  O
  O79      1.0000 0.18363  0.84925  0.03994  Biso   1.000  O
  O80      1.0000 0.24002  0.90563  0.98356  Biso   1.000  O
  O81      1.0000 0.54768  0.20921  0.67794  Biso   1.000  O
  O82      1.0000 0.04462  0.71023  0.17896  Biso   1.000  O
  O83      1.0000 0.49309  0.03287  0.79340  Biso   1.000  O
  O84      1.0000 0.66315  0.32468  0.62335  Biso   1.000  O
  O85      1.0000 0.37134  0.15462  0.79340  Biso   1.000  O
  O86      1.0000 0.66315  0.32468  0.50160  Biso   1.000  O
  O87      1.0000 0.37134  0.32468  0.62335  Biso   1.000  O
  O88      1.0000 0.66315  0.15462  0.79340  Biso   1.000  O
  O89      1.0000 0.49309  0.32468  0.50160  Biso   1.000  O
  O90      1.0000 0.66315  0.03287  0.79340  Biso   1.000  O
  O91      1.0000 0.66315  0.15462  0.50160  Biso   1.000  O
  O92      1.0000 0.49309  0.32468  0.79340  Biso   1.000  O
  O93      1.0000 0.66315  0.03287  0.62335  Biso   1.000  O
  O94      1.0000 0.37134  0.32468  0.79340  Biso   1.000  O
  O95      1.0000 0.09921  0.59477  0.06349  Biso   1.000  O
  O96      1.0000 0.92915  0.88657  0.23354  Biso   1.000  O
  O97      1.0000 0.22096  0.59477  0.06349  Biso   1.000  O
  O98      1.0000 0.92915  0.76482  0.35530  Biso   1.000  O
  O99      1.0000 0.22096  0.59477  0.23354  Biso   1.000  O
  O100     1.0000 0.92915  0.88657  0.06349  Biso   1.000  O
  O101     1.0000 0.09921  0.59477  0.35530  Biso   1.000  O
  O102     1.0000 0.92915  0.76482  0.06349  Biso   1.000  O
  O103     1.0000 0.92915  0.59477  0.35530  Biso   1.000  O
  O104     1.0000 0.09921  0.88657  0.06349  Biso   1.000  O
  O105     1.0000 0.92915  0.59477  0.23354  Biso   1.000  O
  O106     1.0000 0.22096  0.76482  0.06349  Biso   1.000  O
