data_image0
_cell_length_a       18.2115
_cell_length_b       18.2115
_cell_length_c       18.2115
_cell_angle_alpha    60
_cell_angle_beta     60
_cell_angle_gamma    60

_symmetry_space_group_name_H-M    "P 1"
_symmetry_int_tables_number       1

loop_
  _symmetry_equiv_pos_as_xyz
  'x, y, z'

loop_
  _atom_site_label
  _atom_site_occupancy
  _atom_site_fract_x
  _atom_site_fract_y
  _atom_site_fract_z
  _atom_site_thermal_displace_type
  _atom_site_B_iso_or_equiv
  _atom_site_type_symbol
  C1       1.0000 0.29361  0.29361  0.11917  Biso   1.000  C
  C2       1.0000 0.29361  0.29361  0.29361  Biso   1.000  C
  C3       1.0000 0.11917  0.29361  0.29361  Biso   1.000  C
  C4       1.0000 0.29361  0.11917  0.29361  Biso   1.000  C
  C5       1.0000 0.70639  0.70639  0.88083  Biso   1.000  C
  C6       1.0000 0.70639  0.70639  0.70639  Biso   1.000  C
  C7       1.0000 0.70639  0.88083  0.70639  Biso   1.000  C
  C8       1.0000 0.88083  0.70639  0.70639  Biso   1.000  C
  C9       1.0000 0.45530  0.45530  0.93770  Biso   1.000  C
  C10      1.0000 0.45530  0.45530  0.15170  Biso   1.000  C
  C11      1.0000 0.93770  0.15170  0.45530  Biso   1.000  C
  C12      1.0000 0.15170  0.93770  0.45530  Biso   1.000  C
  C13      1.0000 0.45530  0.93770  0.15170  Biso   1.000  C
  C14      1.0000 0.45530  0.15170  0.93770  Biso   1.000  C
  C15      1.0000 0.93770  0.45530  0.45530  Biso   1.000  C
  C16      1.0000 0.15170  0.45530  0.45530  Biso   1.000  C
  C17      1.0000 0.45530  0.15170  0.45530  Biso   1.000  C
  C18      1.0000 0.45530  0.93770  0.45530  Biso   1.000  C
  C19      1.0000 0.93770  0.45530  0.15170  Biso   1.000  C
  C20      1.0000 0.15170  0.45530  0.93770  Biso   1.000  C
  C21      1.0000 0.54470  0.54470  0.06230  Biso   1.000  C
  C22      1.0000 0.54470  0.54470  0.84830  Biso   1.000  C
  C23      1.0000 0.84830  0.06230  0.54470  Biso   1.000  C
  C24      1.0000 0.06230  0.84830  0.54470  Biso   1.000  C
  C25      1.0000 0.06230  0.54470  0.84830  Biso   1.000  C
  C26      1.0000 0.84830  0.54470  0.06230  Biso   1.000  C
  C27      1.0000 0.54470  0.06230  0.54470  Biso   1.000  C
  C28      1.0000 0.54470  0.84830  0.54470  Biso   1.000  C
  C29      1.0000 0.84830  0.54470  0.54470  Biso   1.000  C
  C30      1.0000 0.06230  0.54470  0.54470  Biso   1.000  C
  C31      1.0000 0.54470  0.06230  0.84830  Biso   1.000  C
  C32      1.0000 0.54470  0.84830  0.06230  Biso   1.000  C
  C33      1.0000 0.47300  0.47300  0.96450  Biso   1.000  C
  C34      1.0000 0.47300  0.47300  0.08950  Biso   1.000  C
  C35      1.0000 0.96450  0.08950  0.47300  Biso   1.000  C
  C36      1.0000 0.08950  0.96450  0.47300  Biso   1.000  C
  C37      1.0000 0.47300  0.96450  0.08950  Biso   1.000  C
  C38      1.0000 0.47300  0.08950  0.96450  Biso   1.000  C
  C39      1.0000 0.96450  0.47300  0.47300  Biso   1.000  C
  C40      1.0000 0.08950  0.47300  0.47300  Biso   1.000  C
  C41      1.0000 0.47300  0.08950  0.47300  Biso   1.000  C
  C42      1.0000 0.47300  0.96450  0.47300  Biso   1.000  C
  C43      1.0000 0.96450  0.47300  0.08950  Biso   1.000  C
  C44      1.0000 0.08950  0.47300  0.96450  Biso   1.000  C
  C45      1.0000 0.52700  0.52700  0.03550  Biso   1.000  C
  C46      1.0000 0.52700  0.52700  0.91050  Biso   1.000  C
  C47      1.0000 0.91050  0.03550  0.52700  Biso   1.000  C
  C48      1.0000 0.03550  0.91050  0.52700  Biso   1.000  C
  C49      1.0000 0.03550  0.52700  0.91050  Biso   1.000  C
  C50      1.0000 0.91050  0.52700  0.03550  Biso   1.000  C
  C51      1.0000 0.52700  0.03550  0.52700  Biso   1.000  C
  C52      1.0000 0.52700  0.91050  0.52700  Biso   1.000  C
  C53      1.0000 0.91050  0.52700  0.52700  Biso   1.000  C
  C54      1.0000 0.03550  0.52700  0.52700  Biso   1.000  C
  C55      1.0000 0.52700  0.03550  0.91050  Biso   1.000  C
  C56      1.0000 0.52700  0.91050  0.03550  Biso   1.000  C
  C57      1.0000 0.38860  0.38860  0.11140  Biso   1.000  C
  C58      1.0000 0.44600  0.44600  0.05400  Biso   1.000  C
  C59      1.0000 0.11140  0.11140  0.38860  Biso   1.000  C
  C60      1.0000 0.05400  0.05400  0.44600  Biso   1.000  C
  C61      1.0000 0.38860  0.11140  0.11140  Biso   1.000  C
  C62      1.0000 0.44600  0.05400  0.05400  Biso   1.000  C
  C63      1.0000 0.11140  0.38860  0.38860  Biso   1.000  C
  C64      1.0000 0.05400  0.44600  0.44600  Biso   1.000  C
  C65      1.0000 0.38860  0.11140  0.38860  Biso   1.000  C
  C66      1.0000 0.44600  0.05400  0.44600  Biso   1.000  C
  C67      1.0000 0.11140  0.38860  0.11140  Biso   1.000  C
  C68      1.0000 0.05400  0.44600  0.05400  Biso   1.000  C
  C69      1.0000 0.61140  0.61140  0.88860  Biso   1.000  C
  C70      1.0000 0.55400  0.55400  0.94600  Biso   1.000  C
  C71      1.0000 0.88860  0.88860  0.61140  Biso   1.000  C
  C72      1.0000 0.94600  0.94600  0.55400  Biso   1.000  C
  C73      1.0000 0.88860  0.61140  0.88860  Biso   1.000  C
  C74      1.0000 0.94600  0.55400  0.94600  Biso   1.000  C
  C75      1.0000 0.61140  0.88860  0.61140  Biso   1.000  C
  C76      1.0000 0.55400  0.94600  0.55400  Biso   1.000  C
  C77      1.0000 0.88860  0.61140  0.61140  Biso   1.000  C
  C78      1.0000 0.94600  0.55400  0.55400  Biso   1.000  C
  C79      1.0000 0.61140  0.88860  0.88860  Biso   1.000  C
  C80      1.0000 0.55400  0.94600  0.94600  Biso   1.000  C
  C81      1.0000 0.25000  0.25000  0.25000  Biso   1.000  C
  C82      1.0000 0.75000  0.75000  0.75000  Biso   1.000  C
  C83      1.0000 0.36611  0.36611  0.07317  Biso   1.000  C
  C84      1.0000 0.36611  0.36611  0.19461  Biso   1.000  C
  C85      1.0000 0.07317  0.19461  0.36611  Biso   1.000  C
  C86      1.0000 0.19461  0.07317  0.36611  Biso   1.000  C
  C87      1.0000 0.36611  0.07317  0.19461  Biso   1.000  C
  C88      1.0000 0.36611  0.19461  0.07317  Biso   1.000  C
  C89      1.0000 0.07317  0.36611  0.36611  Biso   1.000  C
  C90      1.0000 0.19461  0.36611  0.36611  Biso   1.000  C
  C91      1.0000 0.36611  0.19461  0.36611  Biso   1.000  C
  C92      1.0000 0.36611  0.07317  0.36611  Biso   1.000  C
  C93      1.0000 0.07317  0.36611  0.19461  Biso   1.000  C
  C94      1.0000 0.19461  0.36611  0.07317  Biso   1.000  C
  C95      1.0000 0.63389  0.63389  0.92683  Biso   1.000  C
  C96      1.0000 0.63389  0.63389  0.80539  Biso   1.000  C
  C97      1.0000 0.80539  0.92683  0.63389  Biso   1.000  C
  C98      1.0000 0.92683  0.80539  0.63389  Biso   1.000  C
  C99      1.0000 0.92683  0.63389  0.80539  Biso   1.000  C
  C100     1.0000 0.80539  0.63389  0.92683  Biso   1.000  C
  C101     1.0000 0.63389  0.92683  0.63389  Biso   1.000  C
  C102     1.0000 0.63389  0.80539  0.63389  Biso   1.000  C
  C103     1.0000 0.80539  0.63389  0.63389  Biso   1.000  C
  C104     1.0000 0.92683  0.63389  0.63389  Biso   1.000  C
  C105     1.0000 0.63389  0.92683  0.80539  Biso   1.000  C
  C106     1.0000 0.63389  0.80539  0.92683  Biso   1.000  C
  O1       1.0000 0.89463  0.75763  0.43413  Biso   1.000  O
  O2       1.0000 0.06951  0.75763  0.25925  Biso   1.000  O
  O3       1.0000 0.89463  0.75763  0.25925  Biso   1.000  O
  O4       1.0000 0.89463  0.93251  0.25925  Biso   1.000  O
  O5       1.0000 0.48853  0.34291  0.66965  Biso   1.000  O
  O6       1.0000 0.31365  0.34291  0.84453  Biso   1.000  O
  O7       1.0000 0.48853  0.16803  0.84453  Biso   1.000  O
  O8       1.0000 0.48853  0.34291  0.84453  Biso   1.000  O
  O9       1.0000 0.04088  0.59466  0.61381  Biso   1.000  O
  O10      1.0000 0.25350  0.59466  0.40119  Biso   1.000  O
  O11      1.0000 0.73597  0.89957  0.09628  Biso   1.000  O
  O12      1.0000 0.73597  0.11219  0.09628  Biso   1.000  O
  O13      1.0000 0.73597  0.11219  0.40119  Biso   1.000  O
  O14      1.0000 0.73597  0.89957  0.61381  Biso   1.000  O
  O15      1.0000 0.04088  0.59466  0.09628  Biso   1.000  O
  O16      1.0000 0.25350  0.59466  0.09628  Biso   1.000  O
  O17      1.0000 0.25350  0.89957  0.09628  Biso   1.000  O
  O18      1.0000 0.04088  0.11219  0.09628  Biso   1.000  O
  O19      1.0000 0.73597  0.59466  0.40119  Biso   1.000  O
  O20      1.0000 0.73597  0.59466  0.61381  Biso   1.000  O
  O21      1.0000 0.34228  0.50588  0.48997  Biso   1.000  O
  O22      1.0000 0.12966  0.50588  0.70259  Biso   1.000  O
  O23      1.0000 0.64719  0.98835  0.00750  Biso   1.000  O
  O24      1.0000 0.64719  0.20097  0.00750  Biso   1.000  O
  O25      1.0000 0.64719  0.50588  0.70259  Biso   1.000  O
  O26      1.0000 0.64719  0.50588  0.48997  Biso   1.000  O
  O27      1.0000 0.34228  0.98835  0.00750  Biso   1.000  O
  O28      1.0000 0.12966  0.20097  0.00750  Biso   1.000  O
  O29      1.0000 0.12966  0.50588  0.00750  Biso   1.000  O
  O30      1.0000 0.34228  0.50588  0.00750  Biso   1.000  O
  O31      1.0000 0.64719  0.98835  0.70259  Biso   1.000  O
  O32      1.0000 0.64719  0.20097  0.48997  Biso   1.000  O
  O33      1.0000 0.10330  0.57689  0.58692  Biso   1.000  O
  O34      1.0000 0.22662  0.57689  0.46361  Biso   1.000  O
  O35      1.0000 0.71821  0.96199  0.07851  Biso   1.000  O
  O36      1.0000 0.71821  0.08531  0.07851  Biso   1.000  O
  O37      1.0000 0.71821  0.08531  0.46361  Biso   1.000  O
  O38      1.0000 0.71821  0.96199  0.58692  Biso   1.000  O
  O39      1.0000 0.10330  0.57689  0.07851  Biso   1.000  O
  O40      1.0000 0.22662  0.57689  0.07851  Biso   1.000  O
  O41      1.0000 0.22662  0.96199  0.07851  Biso   1.000  O
  O42      1.0000 0.10330  0.08531  0.07851  Biso   1.000  O
  O43      1.0000 0.71821  0.57689  0.46361  Biso   1.000  O
  O44      1.0000 0.71821  0.57689  0.58692  Biso   1.000  O
  O45      1.0000 0.27987  0.52365  0.51686  Biso   1.000  O
  O46      1.0000 0.15655  0.52365  0.64017  Biso   1.000  O
  O47      1.0000 0.66496  0.01524  0.02527  Biso   1.000  O
  O48      1.0000 0.66496  0.13855  0.02527  Biso   1.000  O
  O49      1.0000 0.66496  0.52365  0.64017  Biso   1.000  O
  O50      1.0000 0.66496  0.52365  0.51686  Biso   1.000  O
  O51      1.0000 0.27987  0.01524  0.02527  Biso   1.000  O
  O52      1.0000 0.15655  0.13855  0.02527  Biso   1.000  O
  O53      1.0000 0.15655  0.52365  0.02527  Biso   1.000  O
  O54      1.0000 0.27987  0.52365  0.02527  Biso   1.000  O
  O55      1.0000 0.66496  0.01524  0.64017  Biso   1.000  O
  O56      1.0000 0.66496  0.13855  0.51686  Biso   1.000  O
  O57      1.0000 0.07754  0.66216  0.44215  Biso   1.000  O
  O58      1.0000 0.13550  0.60420  0.50011  Biso   1.000  O
  O59      1.0000 0.79916  0.94054  0.16378  Biso   1.000  O
  O60      1.0000 0.74121  0.99849  0.10582  Biso   1.000  O
  O61      1.0000 0.79916  0.94054  0.44215  Biso   1.000  O
  O62      1.0000 0.74121  0.99849  0.50011  Biso   1.000  O
  O63      1.0000 0.07754  0.66216  0.16378  Biso   1.000  O
  O64      1.0000 0.13550  0.60420  0.10582  Biso   1.000  O
  O65      1.0000 0.07754  0.94054  0.16378  Biso   1.000  O
  O66      1.0000 0.13550  0.99849  0.10582  Biso   1.000  O
  O67      1.0000 0.79916  0.66216  0.44215  Biso   1.000  O
  O68      1.0000 0.74121  0.60420  0.50011  Biso   1.000  O
  O69      1.0000 0.30563  0.43838  0.66163  Biso   1.000  O
  O70      1.0000 0.24767  0.49634  0.60367  Biso   1.000  O
  O71      1.0000 0.58400  0.16001  0.94000  Biso   1.000  O
  O72      1.0000 0.64196  0.10205  0.99796  Biso   1.000  O
  O73      1.0000 0.58400  0.43838  0.66163  Biso   1.000  O
  O74      1.0000 0.64196  0.49634  0.60367  Biso   1.000  O
  O75      1.0000 0.30563  0.16001  0.94000  Biso   1.000  O
  O76      1.0000 0.24767  0.10205  0.99796  Biso   1.000  O
  O77      1.0000 0.30563  0.43838  0.94000  Biso   1.000  O
  O78      1.0000 0.24767  0.49634  0.99796  Biso   1.000  O
  O79      1.0000 0.58400  0.16001  0.66163  Biso   1.000  O
  O80      1.0000 0.64196  0.10205  0.60367  Biso   1.000  O
  O81      1.0000 0.93835  0.80135  0.30297  Biso   1.000  O
  O82      1.0000 0.44482  0.29919  0.80081  Biso   1.000  O
  O83      1.0000 0.99390  0.68480  0.48052  Biso   1.000  O
  O84      1.0000 0.11590  0.68480  0.35852  Biso   1.000  O
  O85      1.0000 0.82180  0.85690  0.18642  Biso   1.000  O
  O86      1.0000 0.82180  0.97890  0.18642  Biso   1.000  O
  O87      1.0000 0.82180  0.97890  0.35852  Biso   1.000  O
  O88      1.0000 0.82180  0.85690  0.48052  Biso   1.000  O
  O89      1.0000 0.99390  0.68480  0.18642  Biso   1.000  O
  O90      1.0000 0.11590  0.68480  0.18642  Biso   1.000  O
  O91      1.0000 0.11590  0.85690  0.18642  Biso   1.000  O
  O92      1.0000 0.99390  0.97890  0.18642  Biso   1.000  O
  O93      1.0000 0.82180  0.68480  0.35852  Biso   1.000  O
  O94      1.0000 0.82180  0.68480  0.48052  Biso   1.000  O
  O95      1.0000 0.38927  0.41574  0.62326  Biso   1.000  O
  O96      1.0000 0.26726  0.41574  0.74526  Biso   1.000  O
  O97      1.0000 0.56137  0.12164  0.91736  Biso   1.000  O
  O98      1.0000 0.56137  0.24364  0.91736  Biso   1.000  O
  O99      1.0000 0.56137  0.41574  0.74526  Biso   1.000  O
  O100     1.0000 0.56137  0.41574  0.62326  Biso   1.000  O
  O101     1.0000 0.38927  0.12164  0.91736  Biso   1.000  O
  O102     1.0000 0.26726  0.24364  0.91736  Biso   1.000  O
  O103     1.0000 0.26726  0.41574  0.91736  Biso   1.000  O
  O104     1.0000 0.38927  0.41574  0.91736  Biso   1.000  O
  O105     1.0000 0.56137  0.12164  0.74526  Biso   1.000  O
  O106     1.0000 0.56137  0.24364  0.62326  Biso   1.000  O
