data_image0
_cell_length_a       18.2704
_cell_length_b       18.2704
_cell_length_c       18.2704
_cell_angle_alpha    60
_cell_angle_beta     60
_cell_angle_gamma    60

_symmetry_space_group_name_H-M    "P 1"
_symmetry_int_tables_number       1

loop_
  _symmetry_equiv_pos_as_xyz
  'x, y, z'

loop_
  _atom_site_label
  _atom_site_occupancy
  _atom_site_fract_x
  _atom_site_fract_y
  _atom_site_fract_z
  _atom_site_thermal_displace_type
  _atom_site_B_iso_or_equiv
  _atom_site_type_symbol
  Zn1      1.0000 0.29350  0.29349  0.11952  Biso   1.000  Zn
  Zn2      1.0000 0.29350  0.29349  0.29349  Biso   1.000  Zn
  Zn3      1.0000 0.11953  0.29349  0.29349  Biso   1.000  Zn
  Zn4      1.0000 0.29350  0.11952  0.29349  Biso   1.000  Zn
  Zn5      1.0000 0.70650  0.70651  0.88048  Biso   1.000  Zn
  Zn6      1.0000 0.70650  0.70651  0.70651  Biso   1.000  Zn
  Zn7      1.0000 0.70650  0.88048  0.70651  Biso   1.000  Zn
  Zn8      1.0000 0.88047  0.70651  0.70651  Biso   1.000  Zn
  H1       1.0000 0.45540  0.45540  0.93560  Biso   1.000  H
  H2       1.0000 0.45540  0.45540  0.15360  Biso   1.000  H
  H3       1.0000 0.93560  0.15360  0.45540  Biso   1.000  H
  H4       1.0000 0.15360  0.93560  0.45540  Biso   1.000  H
  H5       1.0000 0.45540  0.93560  0.15360  Biso   1.000  H
  H6       1.0000 0.45540  0.15360  0.93560  Biso   1.000  H
  H7       1.0000 0.93560  0.45540  0.45540  Biso   1.000  H
  H8       1.0000 0.15360  0.45540  0.45540  Biso   1.000  H
  H9       1.0000 0.45540  0.15360  0.45540  Biso   1.000  H
  H10      1.0000 0.45540  0.93560  0.45540  Biso   1.000  H
  H11      1.0000 0.93560  0.45540  0.15360  Biso   1.000  H
  H12      1.0000 0.15360  0.45540  0.93560  Biso   1.000  H
  H13      1.0000 0.54460  0.54460  0.06440  Biso   1.000  H
  H14      1.0000 0.54460  0.54460  0.84640  Biso   1.000  H
  H15      1.0000 0.84640  0.06440  0.54460  Biso   1.000  H
  H16      1.0000 0.06440  0.84640  0.54460  Biso   1.000  H
  H17      1.0000 0.06440  0.54460  0.84640  Biso   1.000  H
  H18      1.0000 0.84640  0.54460  0.06440  Biso   1.000  H
  H19      1.0000 0.54460  0.06440  0.54460  Biso   1.000  H
  H20      1.0000 0.54460  0.84640  0.54460  Biso   1.000  H
  H21      1.0000 0.84640  0.54460  0.54460  Biso   1.000  H
  H22      1.0000 0.06440  0.54460  0.54460  Biso   1.000  H
  H23      1.0000 0.54460  0.06440  0.84640  Biso   1.000  H
  H24      1.0000 0.54460  0.84640  0.06440  Biso   1.000  H
  C1       1.0000 0.47338  0.47338  0.96238  Biso   1.000  C
  C2       1.0000 0.47338  0.47338  0.09086  Biso   1.000  C
  C3       1.0000 0.96238  0.09086  0.47338  Biso   1.000  C
  C4       1.0000 0.09086  0.96238  0.47338  Biso   1.000  C
  C5       1.0000 0.47338  0.96238  0.09086  Biso   1.000  C
  C6       1.0000 0.47338  0.09086  0.96238  Biso   1.000  C
  C7       1.0000 0.96238  0.47338  0.47338  Biso   1.000  C
  C8       1.0000 0.09086  0.47338  0.47338  Biso   1.000  C
  C9       1.0000 0.47338  0.09086  0.47338  Biso   1.000  C
  C10      1.0000 0.47338  0.96238  0.47338  Biso   1.000  C
  C11      1.0000 0.96238  0.47338  0.09086  Biso   1.000  C
  C12      1.0000 0.09086  0.47338  0.96238  Biso   1.000  C
  C13      1.0000 0.52662  0.52662  0.03762  Biso   1.000  C
  C14      1.0000 0.52662  0.52662  0.90914  Biso   1.000  C
  C15      1.0000 0.90914  0.03762  0.52662  Biso   1.000  C
  C16      1.0000 0.03762  0.90914  0.52662  Biso   1.000  C
  C17      1.0000 0.03762  0.52662  0.90914  Biso   1.000  C
  C18      1.0000 0.90914  0.52662  0.03762  Biso   1.000  C
  C19      1.0000 0.52662  0.03762  0.52662  Biso   1.000  C
  C20      1.0000 0.52662  0.90914  0.52662  Biso   1.000  C
  C21      1.0000 0.90914  0.52662  0.52662  Biso   1.000  C
  C22      1.0000 0.03762  0.52662  0.52662  Biso   1.000  C
  C23      1.0000 0.52662  0.03762  0.90914  Biso   1.000  C
  C24      1.0000 0.52662  0.90914  0.03762  Biso   1.000  C
  C25      1.0000 0.38861  0.38861  0.11139  Biso   1.000  C
  C26      1.0000 0.44619  0.44619  0.05381  Biso   1.000  C
  C27      1.0000 0.11139  0.11139  0.38861  Biso   1.000  C
  C28      1.0000 0.05381  0.05381  0.44619  Biso   1.000  C
  C29      1.0000 0.38861  0.11139  0.11139  Biso   1.000  C
  C30      1.0000 0.44619  0.05381  0.05381  Biso   1.000  C
  C31      1.0000 0.11139  0.38861  0.38861  Biso   1.000  C
  C32      1.0000 0.05381  0.44619  0.44619  Biso   1.000  C
  C33      1.0000 0.38861  0.11139  0.38861  Biso   1.000  C
  C34      1.0000 0.44619  0.05381  0.44619  Biso   1.000  C
  C35      1.0000 0.11139  0.38861  0.11139  Biso   1.000  C
  C36      1.0000 0.05381  0.44619  0.05381  Biso   1.000  C
  C37      1.0000 0.61139  0.61139  0.88861  Biso   1.000  C
  C38      1.0000 0.55381  0.55381  0.94619  Biso   1.000  C
  C39      1.0000 0.88861  0.88861  0.61139  Biso   1.000  C
  C40      1.0000 0.94619  0.94619  0.55381  Biso   1.000  C
  C41      1.0000 0.88861  0.61139  0.88861  Biso   1.000  C
  C42      1.0000 0.94619  0.55381  0.94619  Biso   1.000  C
  C43      1.0000 0.61139  0.88861  0.61139  Biso   1.000  C
  C44      1.0000 0.55381  0.94619  0.55381  Biso   1.000  C
  C45      1.0000 0.88861  0.61139  0.61139  Biso   1.000  C
  C46      1.0000 0.94619  0.55381  0.55381  Biso   1.000  C
  C47      1.0000 0.61139  0.88861  0.88861  Biso   1.000  C
  C48      1.0000 0.55381  0.94619  0.94619  Biso   1.000  C
  O1       1.0000 0.25000  0.25000  0.25000  Biso   1.000  O
  O2       1.0000 0.75000  0.75000  0.75000  Biso   1.000  O
  O3       1.0000 0.36607  0.36607  0.07299  Biso   1.000  O
  O4       1.0000 0.36607  0.36607  0.19487  Biso   1.000  O
  O5       1.0000 0.07299  0.19487  0.36607  Biso   1.000  O
  O6       1.0000 0.19487  0.07299  0.36607  Biso   1.000  O
  O7       1.0000 0.36607  0.07299  0.19487  Biso   1.000  O
  O8       1.0000 0.36607  0.19487  0.07299  Biso   1.000  O
  O9       1.0000 0.07299  0.36607  0.36607  Biso   1.000  O
  O10      1.0000 0.19487  0.36607  0.36607  Biso   1.000  O
  O11      1.0000 0.36607  0.19487  0.36607  Biso   1.000  O
  O12      1.0000 0.36607  0.07299  0.36607  Biso   1.000  O
  O13      1.0000 0.07299  0.36607  0.19487  Biso   1.000  O
  O14      1.0000 0.19487  0.36607  0.07299  Biso   1.000  O
  O15      1.0000 0.63393  0.63393  0.92701  Biso   1.000  O
  O16      1.0000 0.63393  0.63393  0.80513  Biso   1.000  O
  O17      1.0000 0.80513  0.92701  0.63393  Biso   1.000  O
  O18      1.0000 0.92701  0.80513  0.63393  Biso   1.000  O
  O19      1.0000 0.92701  0.63393  0.80513  Biso   1.000  O
  O20      1.0000 0.80513  0.63393  0.92701  Biso   1.000  O
  O21      1.0000 0.63393  0.92701  0.63393  Biso   1.000  O
  O22      1.0000 0.63393  0.80513  0.63393  Biso   1.000  O
  O23      1.0000 0.80513  0.63393  0.63393  Biso   1.000  O
  O24      1.0000 0.92701  0.63393  0.63393  Biso   1.000  O
  O25      1.0000 0.63393  0.92701  0.80513  Biso   1.000  O
  O26      1.0000 0.63393  0.80513  0.92701  Biso   1.000  O
  Zn9      1.0000 0.50297  0.52052  0.33533  Biso   1.000  Zn
  Zn10     1.0000 0.50297  0.52052  0.50938  Biso   1.000  Zn
  Zn11     1.0000 0.32892  0.52052  0.50938  Biso   1.000  Zn
  Zn12     1.0000 0.50297  0.34647  0.50938  Biso   1.000  Zn
  Zn13     1.0000 0.91640  0.93397  0.09688  Biso   1.000  Zn
  Zn14     1.0000 0.91640  0.93397  0.92282  Biso   1.000  Zn
  Zn15     1.0000 0.91640  0.10802  0.92282  Biso   1.000  Zn
  Zn16     1.0000 0.09045  0.93397  0.92282  Biso   1.000  Zn
  H25      1.0000 0.66484  0.68240  0.15171  Biso   1.000  H
  H26      1.0000 0.66484  0.68240  0.37018  Biso   1.000  H
  H27      1.0000 0.14529  0.38132  0.67126  Biso   1.000  H
  H28      1.0000 0.36376  0.16285  0.67126  Biso   1.000  H
  H29      1.0000 0.66484  0.16285  0.37018  Biso   1.000  H
  H30      1.0000 0.66484  0.38132  0.15171  Biso   1.000  H
  H31      1.0000 0.14529  0.68240  0.67126  Biso   1.000  H
  H32      1.0000 0.36376  0.68240  0.67126  Biso   1.000  H
  H33      1.0000 0.66484  0.38132  0.67126  Biso   1.000  H
  H34      1.0000 0.66484  0.16285  0.67126  Biso   1.000  H
  H35      1.0000 0.14529  0.68240  0.37018  Biso   1.000  H
  H36      1.0000 0.36376  0.68240  0.15171  Biso   1.000  H
  H37      1.0000 0.75453  0.77209  0.28050  Biso   1.000  H
  H38      1.0000 0.75453  0.77209  0.06202  Biso   1.000  H
  H39      1.0000 0.05561  0.29164  0.76094  Biso   1.000  H
  H40      1.0000 0.27408  0.07317  0.76094  Biso   1.000  H
  H41      1.0000 0.27408  0.77209  0.06202  Biso   1.000  H
  H42      1.0000 0.05561  0.77209  0.28050  Biso   1.000  H
  H43      1.0000 0.75453  0.29164  0.76094  Biso   1.000  H
  H44      1.0000 0.75453  0.07317  0.76094  Biso   1.000  H
  H45      1.0000 0.05561  0.77209  0.76094  Biso   1.000  H
  H46      1.0000 0.27408  0.77209  0.76094  Biso   1.000  H
  H47      1.0000 0.75453  0.29164  0.06202  Biso   1.000  H
  H48      1.0000 0.75453  0.07317  0.28050  Biso   1.000  H
  C49      1.0000 0.68304  0.70060  0.17867  Biso   1.000  C
  C50      1.0000 0.68304  0.70060  0.30682  Biso   1.000  C
  C51      1.0000 0.17226  0.31797  0.68946  Biso   1.000  C
  C52      1.0000 0.30041  0.18982  0.68946  Biso   1.000  C
  C53      1.0000 0.68304  0.18982  0.30682  Biso   1.000  C
  C54      1.0000 0.68304  0.31797  0.17867  Biso   1.000  C
  C55      1.0000 0.17226  0.70060  0.68946  Biso   1.000  C
  C56      1.0000 0.30041  0.70060  0.68946  Biso   1.000  C
  C57      1.0000 0.68304  0.31797  0.68946  Biso   1.000  C
  C58      1.0000 0.68304  0.18982  0.68946  Biso   1.000  C
  C59      1.0000 0.17226  0.70060  0.30682  Biso   1.000  C
  C60      1.0000 0.30041  0.70060  0.17867  Biso   1.000  C
  C61      1.0000 0.73633  0.75389  0.25353  Biso   1.000  C
  C62      1.0000 0.73633  0.75389  0.12538  Biso   1.000  C
  C63      1.0000 0.11897  0.26468  0.74275  Biso   1.000  C
  C64      1.0000 0.24712  0.13653  0.74275  Biso   1.000  C
  C65      1.0000 0.24712  0.75389  0.12538  Biso   1.000  C
  C66      1.0000 0.11897  0.75389  0.25353  Biso   1.000  C
  C67      1.0000 0.73633  0.26468  0.74275  Biso   1.000  C
  C68      1.0000 0.73633  0.13653  0.74275  Biso   1.000  C
  C69      1.0000 0.11897  0.75389  0.74275  Biso   1.000  C
  C70      1.0000 0.24712  0.75389  0.74275  Biso   1.000  C
  C71      1.0000 0.73633  0.26468  0.12538  Biso   1.000  C
  C72      1.0000 0.73633  0.13653  0.25353  Biso   1.000  C
  C73      1.0000 0.59811  0.61567  0.32721  Biso   1.000  C
  C74      1.0000 0.65579  0.67335  0.26954  Biso   1.000  C
  C75      1.0000 0.32079  0.33835  0.60453  Biso   1.000  C
  C76      1.0000 0.26312  0.28068  0.66220  Biso   1.000  C
  C77      1.0000 0.59811  0.33835  0.32721  Biso   1.000  C
  C78      1.0000 0.65579  0.28068  0.26954  Biso   1.000  C
  C79      1.0000 0.32079  0.61567  0.60453  Biso   1.000  C
  C80      1.0000 0.26312  0.67335  0.66220  Biso   1.000  C
  C81      1.0000 0.59811  0.33835  0.60453  Biso   1.000  C
  C82      1.0000 0.65579  0.28068  0.66220  Biso   1.000  C
  C83      1.0000 0.32079  0.61567  0.32721  Biso   1.000  C
  C84      1.0000 0.26312  0.67335  0.26954  Biso   1.000  C
  C85      1.0000 0.82126  0.83882  0.10499  Biso   1.000  C
  C86      1.0000 0.76359  0.78115  0.16267  Biso   1.000  C
  C87      1.0000 0.09858  0.11614  0.82768  Biso   1.000  C
  C88      1.0000 0.15625  0.17381  0.77000  Biso   1.000  C
  C89      1.0000 0.09858  0.83882  0.10499  Biso   1.000  C
  C90      1.0000 0.15625  0.78115  0.16267  Biso   1.000  C
  C91      1.0000 0.82126  0.11614  0.82768  Biso   1.000  C
  C92      1.0000 0.76359  0.17381  0.77000  Biso   1.000  C
  C93      1.0000 0.09858  0.83882  0.82768  Biso   1.000  C
  C94      1.0000 0.15625  0.78115  0.77000  Biso   1.000  C
  C95      1.0000 0.82126  0.11614  0.10499  Biso   1.000  C
  C96      1.0000 0.76359  0.17381  0.16267  Biso   1.000  C
  O27      1.0000 0.45945  0.47701  0.46587  Biso   1.000  O
  O28      1.0000 0.95992  0.97748  0.96633  Biso   1.000  O
  O29      1.0000 0.57580  0.59336  0.28856  Biso   1.000  O
  O30      1.0000 0.57580  0.59336  0.41048  Biso   1.000  O
  O31      1.0000 0.28215  0.42162  0.58222  Biso   1.000  O
  O32      1.0000 0.40406  0.29971  0.58222  Biso   1.000  O
  O33      1.0000 0.57580  0.29971  0.41048  Biso   1.000  O
  O34      1.0000 0.57580  0.42162  0.28856  Biso   1.000  O
  O35      1.0000 0.28215  0.59336  0.58222  Biso   1.000  O
  O36      1.0000 0.40406  0.59336  0.58222  Biso   1.000  O
  O37      1.0000 0.57580  0.42162  0.58222  Biso   1.000  O
  O38      1.0000 0.57580  0.29971  0.58222  Biso   1.000  O
  O39      1.0000 0.28215  0.59336  0.41048  Biso   1.000  O
  O40      1.0000 0.40406  0.59336  0.28856  Biso   1.000  O
  O41      1.0000 0.84357  0.86113  0.14364  Biso   1.000  O
  O42      1.0000 0.84357  0.86113  0.02173  Biso   1.000  O
  O43      1.0000 0.01531  0.15478  0.84999  Biso   1.000  O
  O44      1.0000 0.13722  0.03287  0.84999  Biso   1.000  O
  O45      1.0000 0.13722  0.86113  0.02173  Biso   1.000  O
  O46      1.0000 0.01531  0.86113  0.14364  Biso   1.000  O
  O47      1.0000 0.84357  0.15478  0.84999  Biso   1.000  O
  O48      1.0000 0.84357  0.03287  0.84999  Biso   1.000  O
  O49      1.0000 0.01531  0.86113  0.84999  Biso   1.000  O
  O50      1.0000 0.13722  0.86113  0.84999  Biso   1.000  O
  O51      1.0000 0.84357  0.15478  0.02173  Biso   1.000  O
  O52      1.0000 0.84357  0.03287  0.14364  Biso   1.000  O
