data_image0
_cell_length_a       18.2789
_cell_length_b       18.2789
_cell_length_c       18.2789
_cell_angle_alpha    60
_cell_angle_beta     60
_cell_angle_gamma    60

_symmetry_space_group_name_H-M    "P 1"
_symmetry_int_tables_number       1

loop_
  _symmetry_equiv_pos_as_xyz
  'x, y, z'

loop_
  _atom_site_label
  _atom_site_occupancy
  _atom_site_fract_x
  _atom_site_fract_y
  _atom_site_fract_z
  _atom_site_thermal_displace_type
  _atom_site_B_iso_or_equiv
  _atom_site_type_symbol
  C1       1.0000 0.29348  0.29347  0.11958  Biso   1.000  C
  C2       1.0000 0.29348  0.29347  0.29347  Biso   1.000  C
  C3       1.0000 0.11959  0.29347  0.29347  Biso   1.000  C
  C4       1.0000 0.29348  0.11958  0.29347  Biso   1.000  C
  C5       1.0000 0.70652  0.70653  0.88042  Biso   1.000  C
  C6       1.0000 0.70652  0.70653  0.70653  Biso   1.000  C
  C7       1.0000 0.70652  0.88042  0.70653  Biso   1.000  C
  C8       1.0000 0.88041  0.70653  0.70653  Biso   1.000  C
  C9       1.0000 0.45520  0.45520  0.93520  Biso   1.000  C
  C10      1.0000 0.45520  0.45520  0.15440  Biso   1.000  C
  C11      1.0000 0.93520  0.15440  0.45520  Biso   1.000  C
  C12      1.0000 0.15440  0.93520  0.45520  Biso   1.000  C
  C13      1.0000 0.45520  0.93520  0.15440  Biso   1.000  C
  C14      1.0000 0.45520  0.15440  0.93520  Biso   1.000  C
  C15      1.0000 0.93520  0.45520  0.45520  Biso   1.000  C
  C16      1.0000 0.15440  0.45520  0.45520  Biso   1.000  C
  C17      1.0000 0.45520  0.15440  0.45520  Biso   1.000  C
  C18      1.0000 0.45520  0.93520  0.45520  Biso   1.000  C
  C19      1.0000 0.93520  0.45520  0.15440  Biso   1.000  C
  C20      1.0000 0.15440  0.45520  0.93520  Biso   1.000  C
  C21      1.0000 0.54480  0.54480  0.06480  Biso   1.000  C
  C22      1.0000 0.54480  0.54480  0.84560  Biso   1.000  C
  C23      1.0000 0.84560  0.06480  0.54480  Biso   1.000  C
  C24      1.0000 0.06480  0.84560  0.54480  Biso   1.000  C
  C25      1.0000 0.06480  0.54480  0.84560  Biso   1.000  C
  C26      1.0000 0.84560  0.54480  0.06480  Biso   1.000  C
  C27      1.0000 0.54480  0.06480  0.54480  Biso   1.000  C
  C28      1.0000 0.54480  0.84560  0.54480  Biso   1.000  C
  C29      1.0000 0.84560  0.54480  0.54480  Biso   1.000  C
  C30      1.0000 0.06480  0.54480  0.54480  Biso   1.000  C
  C31      1.0000 0.54480  0.06480  0.84560  Biso   1.000  C
  C32      1.0000 0.54480  0.84560  0.06480  Biso   1.000  C
  C33      1.0000 0.47338  0.47338  0.96214  Biso   1.000  C
  C34      1.0000 0.47338  0.47338  0.09110  Biso   1.000  C
  C35      1.0000 0.96214  0.09110  0.47338  Biso   1.000  C
  C36      1.0000 0.09110  0.96214  0.47338  Biso   1.000  C
  C37      1.0000 0.47338  0.96214  0.09110  Biso   1.000  C
  C38      1.0000 0.47338  0.09110  0.96214  Biso   1.000  C
  C39      1.0000 0.96214  0.47338  0.47338  Biso   1.000  C
  C40      1.0000 0.09110  0.47338  0.47338  Biso   1.000  C
  C41      1.0000 0.47338  0.09110  0.47338  Biso   1.000  C
  C42      1.0000 0.47338  0.96214  0.47338  Biso   1.000  C
  C43      1.0000 0.96214  0.47338  0.09110  Biso   1.000  C
  C44      1.0000 0.09110  0.47338  0.96214  Biso   1.000  C
  C45      1.0000 0.52662  0.52662  0.03786  Biso   1.000  C
  C46      1.0000 0.52662  0.52662  0.90890  Biso   1.000  C
  C47      1.0000 0.90890  0.03786  0.52662  Biso   1.000  C
  C48      1.0000 0.03786  0.90890  0.52662  Biso   1.000  C
  C49      1.0000 0.03786  0.52662  0.90890  Biso   1.000  C
  C50      1.0000 0.90890  0.52662  0.03786  Biso   1.000  C
  C51      1.0000 0.52662  0.03786  0.52662  Biso   1.000  C
  C52      1.0000 0.52662  0.90890  0.52662  Biso   1.000  C
  C53      1.0000 0.90890  0.52662  0.52662  Biso   1.000  C
  C54      1.0000 0.03786  0.52662  0.52662  Biso   1.000  C
  C55      1.0000 0.52662  0.03786  0.90890  Biso   1.000  C
  C56      1.0000 0.52662  0.90890  0.03786  Biso   1.000  C
  C57      1.0000 0.38853  0.38853  0.11147  Biso   1.000  C
  C58      1.0000 0.44615  0.44615  0.05385  Biso   1.000  C
  C59      1.0000 0.11147  0.11147  0.38853  Biso   1.000  C
  C60      1.0000 0.05385  0.05385  0.44615  Biso   1.000  C
  C61      1.0000 0.38853  0.11147  0.11147  Biso   1.000  C
  C62      1.0000 0.44615  0.05385  0.05385  Biso   1.000  C
  C63      1.0000 0.11147  0.38853  0.38853  Biso   1.000  C
  C64      1.0000 0.05385  0.44615  0.44615  Biso   1.000  C
  C65      1.0000 0.38853  0.11147  0.38853  Biso   1.000  C
  C66      1.0000 0.44615  0.05385  0.44615  Biso   1.000  C
  C67      1.0000 0.11147  0.38853  0.11147  Biso   1.000  C
  C68      1.0000 0.05385  0.44615  0.05385  Biso   1.000  C
  C69      1.0000 0.61147  0.61147  0.88853  Biso   1.000  C
  C70      1.0000 0.55385  0.55385  0.94615  Biso   1.000  C
  C71      1.0000 0.88853  0.88853  0.61147  Biso   1.000  C
  C72      1.0000 0.94615  0.94615  0.55385  Biso   1.000  C
  C73      1.0000 0.88853  0.61147  0.88853  Biso   1.000  C
  C74      1.0000 0.94615  0.55385  0.94615  Biso   1.000  C
  C75      1.0000 0.61147  0.88853  0.61147  Biso   1.000  C
  C76      1.0000 0.55385  0.94615  0.55385  Biso   1.000  C
  C77      1.0000 0.88853  0.61147  0.61147  Biso   1.000  C
  C78      1.0000 0.94615  0.55385  0.55385  Biso   1.000  C
  C79      1.0000 0.61147  0.88853  0.88853  Biso   1.000  C
  C80      1.0000 0.55385  0.94615  0.94615  Biso   1.000  C
  C81      1.0000 0.25000  0.25000  0.25000  Biso   1.000  C
  C82      1.0000 0.75000  0.75000  0.75000  Biso   1.000  C
  C83      1.0000 0.36624  0.36624  0.07286  Biso   1.000  C
  C84      1.0000 0.36624  0.36624  0.19466  Biso   1.000  C
  C85      1.0000 0.07286  0.19466  0.36624  Biso   1.000  C
  C86      1.0000 0.19466  0.07286  0.36624  Biso   1.000  C
  C87      1.0000 0.36624  0.07286  0.19466  Biso   1.000  C
  C88      1.0000 0.36624  0.19466  0.07286  Biso   1.000  C
  C89      1.0000 0.07286  0.36624  0.36624  Biso   1.000  C
  C90      1.0000 0.19466  0.36624  0.36624  Biso   1.000  C
  C91      1.0000 0.36624  0.19466  0.36624  Biso   1.000  C
  C92      1.0000 0.36624  0.07286  0.36624  Biso   1.000  C
  C93      1.0000 0.07286  0.36624  0.19466  Biso   1.000  C
  C94      1.0000 0.19466  0.36624  0.07286  Biso   1.000  C
  C95      1.0000 0.63376  0.63376  0.92714  Biso   1.000  C
  C96      1.0000 0.63376  0.63376  0.80534  Biso   1.000  C
  C97      1.0000 0.80534  0.92714  0.63376  Biso   1.000  C
  C98      1.0000 0.92714  0.80534  0.63376  Biso   1.000  C
  C99      1.0000 0.92714  0.63376  0.80534  Biso   1.000  C
  C100     1.0000 0.80534  0.63376  0.92714  Biso   1.000  C
  C101     1.0000 0.63376  0.92714  0.63376  Biso   1.000  C
  C102     1.0000 0.63376  0.80534  0.63376  Biso   1.000  C
  C103     1.0000 0.80534  0.63376  0.63376  Biso   1.000  C
  C104     1.0000 0.92714  0.63376  0.63376  Biso   1.000  C
  C105     1.0000 0.63376  0.92714  0.80534  Biso   1.000  C
  C106     1.0000 0.63376  0.80534  0.92714  Biso   1.000  C
  O1       1.0000 0.50240  0.51993  0.33495  Biso   1.000  O
  O2       1.0000 0.50240  0.51993  0.50884  Biso   1.000  O
  O3       1.0000 0.32850  0.51993  0.50884  Biso   1.000  O
  O4       1.0000 0.50240  0.34603  0.50884  Biso   1.000  O
  O5       1.0000 0.91523  0.93278  0.09559  Biso   1.000  O
  O6       1.0000 0.91523  0.93278  0.92169  Biso   1.000  O
  O7       1.0000 0.91523  0.10668  0.92169  Biso   1.000  O
  O8       1.0000 0.08913  0.93278  0.92169  Biso   1.000  O
  O9       1.0000 0.66413  0.68167  0.15079  Biso   1.000  O
  O10      1.0000 0.66413  0.68167  0.36911  Biso   1.000  O
  O11      1.0000 0.14433  0.38020  0.67059  Biso   1.000  O
  O12      1.0000 0.36266  0.16188  0.67059  Biso   1.000  O
  O13      1.0000 0.66413  0.16188  0.36911  Biso   1.000  O
  O14      1.0000 0.66413  0.38020  0.15079  Biso   1.000  O
  O15      1.0000 0.14433  0.68167  0.67059  Biso   1.000  O
  O16      1.0000 0.36266  0.68167  0.67059  Biso   1.000  O
  O17      1.0000 0.66413  0.38020  0.67059  Biso   1.000  O
  O18      1.0000 0.66413  0.16188  0.67059  Biso   1.000  O
  O19      1.0000 0.14433  0.68167  0.36911  Biso   1.000  O
  O20      1.0000 0.36266  0.68167  0.15079  Biso   1.000  O
  O21      1.0000 0.75350  0.77104  0.27975  Biso   1.000  O
  O22      1.0000 0.75350  0.77104  0.06142  Biso   1.000  O
  O23      1.0000 0.05497  0.29084  0.75995  Biso   1.000  O
  O24      1.0000 0.27330  0.07251  0.75995  Biso   1.000  O
  O25      1.0000 0.27330  0.77104  0.06142  Biso   1.000  O
  O26      1.0000 0.05497  0.77104  0.27975  Biso   1.000  O
  O27      1.0000 0.75350  0.29084  0.75995  Biso   1.000  O
  O28      1.0000 0.75350  0.07251  0.75995  Biso   1.000  O
  O29      1.0000 0.05497  0.77104  0.75995  Biso   1.000  O
  O30      1.0000 0.27330  0.77104  0.75995  Biso   1.000  O
  O31      1.0000 0.75350  0.29084  0.06142  Biso   1.000  O
  O32      1.0000 0.75350  0.07251  0.27975  Biso   1.000  O
  O33      1.0000 0.68214  0.69968  0.17739  Biso   1.000  O
  O34      1.0000 0.68214  0.69968  0.30651  Biso   1.000  O
  O35      1.0000 0.17093  0.31760  0.68859  Biso   1.000  O
  O36      1.0000 0.30006  0.18847  0.68859  Biso   1.000  O
  O37      1.0000 0.68214  0.18847  0.30651  Biso   1.000  O
  O38      1.0000 0.68214  0.31760  0.17739  Biso   1.000  O
  O39      1.0000 0.17093  0.69968  0.68859  Biso   1.000  O
  O40      1.0000 0.30006  0.69968  0.68859  Biso   1.000  O
  O41      1.0000 0.68214  0.31760  0.68859  Biso   1.000  O
  O42      1.0000 0.68214  0.18847  0.68859  Biso   1.000  O
  O43      1.0000 0.17093  0.69968  0.30651  Biso   1.000  O
  O44      1.0000 0.30006  0.69968  0.17739  Biso   1.000  O
  O45      1.0000 0.73549  0.75304  0.25315  Biso   1.000  O
  O46      1.0000 0.73549  0.75304  0.12403  Biso   1.000  O
  O47      1.0000 0.11758  0.26424  0.74195  Biso   1.000  O
  O48      1.0000 0.24670  0.13512  0.74195  Biso   1.000  O
  O49      1.0000 0.24670  0.75304  0.12403  Biso   1.000  O
  O50      1.0000 0.11758  0.75304  0.25315  Biso   1.000  O
  O51      1.0000 0.73549  0.26424  0.74195  Biso   1.000  O
  O52      1.0000 0.73549  0.13512  0.74195  Biso   1.000  O
  O53      1.0000 0.11758  0.75304  0.74195  Biso   1.000  O
  O54      1.0000 0.24670  0.75304  0.74195  Biso   1.000  O
  O55      1.0000 0.73549  0.26424  0.12403  Biso   1.000  O
  O56      1.0000 0.73549  0.13512  0.25315  Biso   1.000  O
  O57      1.0000 0.59739  0.61493  0.32690  Biso   1.000  O
  O58      1.0000 0.65509  0.67263  0.26920  Biso   1.000  O
  O59      1.0000 0.32045  0.33799  0.60384  Biso   1.000  O
  O60      1.0000 0.26275  0.28029  0.66154  Biso   1.000  O
  O61      1.0000 0.59739  0.33799  0.32690  Biso   1.000  O
  O62      1.0000 0.65509  0.28029  0.26920  Biso   1.000  O
  O63      1.0000 0.32045  0.61493  0.60384  Biso   1.000  O
  O64      1.0000 0.26275  0.67263  0.66154  Biso   1.000  O
  O65      1.0000 0.59739  0.33799  0.60384  Biso   1.000  O
  O66      1.0000 0.65509  0.28029  0.66154  Biso   1.000  O
  O67      1.0000 0.32045  0.61493  0.32690  Biso   1.000  O
  O68      1.0000 0.26275  0.67263  0.26920  Biso   1.000  O
  O69      1.0000 0.82024  0.83778  0.10364  Biso   1.000  O
  O70      1.0000 0.76254  0.78008  0.16133  Biso   1.000  O
  O71      1.0000 0.09718  0.11472  0.82669  Biso   1.000  O
  O72      1.0000 0.15488  0.17242  0.76900  Biso   1.000  O
  O73      1.0000 0.09718  0.83778  0.10364  Biso   1.000  O
  O74      1.0000 0.15488  0.78008  0.16133  Biso   1.000  O
  O75      1.0000 0.82024  0.11472  0.82669  Biso   1.000  O
  O76      1.0000 0.76254  0.17242  0.76900  Biso   1.000  O
  O77      1.0000 0.09718  0.83778  0.82669  Biso   1.000  O
  O78      1.0000 0.15488  0.78008  0.76900  Biso   1.000  O
  O79      1.0000 0.82024  0.11472  0.10364  Biso   1.000  O
  O80      1.0000 0.76254  0.17242  0.16133  Biso   1.000  O
  O81      1.0000 0.45892  0.47646  0.46537  Biso   1.000  O
  O82      1.0000 0.95871  0.97625  0.96516  Biso   1.000  O
  O83      1.0000 0.57496  0.59250  0.28844  Biso   1.000  O
  O84      1.0000 0.57496  0.59250  0.41023  Biso   1.000  O
  O85      1.0000 0.28198  0.42131  0.58141  Biso   1.000  O
  O86      1.0000 0.40377  0.29952  0.58141  Biso   1.000  O
  O87      1.0000 0.57496  0.29952  0.41023  Biso   1.000  O
  O88      1.0000 0.57496  0.42131  0.28844  Biso   1.000  O
  O89      1.0000 0.28198  0.59250  0.58141  Biso   1.000  O
  O90      1.0000 0.40377  0.59250  0.58141  Biso   1.000  O
  O91      1.0000 0.57496  0.42131  0.58141  Biso   1.000  O
  O92      1.0000 0.57496  0.29952  0.58141  Biso   1.000  O
  O93      1.0000 0.28198  0.59250  0.41023  Biso   1.000  O
  O94      1.0000 0.40377  0.59250  0.28844  Biso   1.000  O
  O95      1.0000 0.84267  0.86021  0.14210  Biso   1.000  O
  O96      1.0000 0.84267  0.86021  0.02031  Biso   1.000  O
  O97      1.0000 0.01386  0.15319  0.84912  Biso   1.000  O
  O98      1.0000 0.13565  0.03140  0.84912  Biso   1.000  O
  O99      1.0000 0.13565  0.86021  0.02031  Biso   1.000  O
  O100     1.0000 0.01386  0.86021  0.14210  Biso   1.000  O
  O101     1.0000 0.84267  0.15319  0.84912  Biso   1.000  O
  O102     1.0000 0.84267  0.03140  0.84912  Biso   1.000  O
  O103     1.0000 0.01386  0.86021  0.84912  Biso   1.000  O
  O104     1.0000 0.13565  0.86021  0.84912  Biso   1.000  O
  O105     1.0000 0.84267  0.15319  0.02031  Biso   1.000  O
  O106     1.0000 0.84267  0.03140  0.14210  Biso   1.000  O
