data_image0
_cell_length_a       18.2704
_cell_length_b       18.2704
_cell_length_c       18.2704
_cell_angle_alpha    60
_cell_angle_beta     60
_cell_angle_gamma    60

_symmetry_space_group_name_H-M    "P 1"
_symmetry_int_tables_number       1

loop_
  _symmetry_equiv_pos_as_xyz
  'x, y, z'

loop_
  _atom_site_label
  _atom_site_occupancy
  _atom_site_fract_x
  _atom_site_fract_y
  _atom_site_fract_z
  _atom_site_thermal_displace_type
  _atom_site_B_iso_or_equiv
  _atom_site_type_symbol
  C1       1.0000 0.29350  0.29349  0.11952  Biso   1.000  C
  C2       1.0000 0.29350  0.29349  0.29349  Biso   1.000  C
  C3       1.0000 0.11953  0.29349  0.29349  Biso   1.000  C
  C4       1.0000 0.29350  0.11952  0.29349  Biso   1.000  C
  C5       1.0000 0.70650  0.70651  0.88048  Biso   1.000  C
  C6       1.0000 0.70650  0.70651  0.70651  Biso   1.000  C
  C7       1.0000 0.70650  0.88048  0.70651  Biso   1.000  C
  C8       1.0000 0.88047  0.70651  0.70651  Biso   1.000  C
  C9       1.0000 0.45540  0.45540  0.93560  Biso   1.000  C
  C10      1.0000 0.45540  0.45540  0.15360  Biso   1.000  C
  C11      1.0000 0.93560  0.15360  0.45540  Biso   1.000  C
  C12      1.0000 0.15360  0.93560  0.45540  Biso   1.000  C
  C13      1.0000 0.45540  0.93560  0.15360  Biso   1.000  C
  C14      1.0000 0.45540  0.15360  0.93560  Biso   1.000  C
  C15      1.0000 0.93560  0.45540  0.45540  Biso   1.000  C
  C16      1.0000 0.15360  0.45540  0.45540  Biso   1.000  C
  C17      1.0000 0.45540  0.15360  0.45540  Biso   1.000  C
  C18      1.0000 0.45540  0.93560  0.45540  Biso   1.000  C
  C19      1.0000 0.93560  0.45540  0.15360  Biso   1.000  C
  C20      1.0000 0.15360  0.45540  0.93560  Biso   1.000  C
  C21      1.0000 0.54460  0.54460  0.06440  Biso   1.000  C
  C22      1.0000 0.54460  0.54460  0.84640  Biso   1.000  C
  C23      1.0000 0.84640  0.06440  0.54460  Biso   1.000  C
  C24      1.0000 0.06440  0.84640  0.54460  Biso   1.000  C
  C25      1.0000 0.06440  0.54460  0.84640  Biso   1.000  C
  C26      1.0000 0.84640  0.54460  0.06440  Biso   1.000  C
  C27      1.0000 0.54460  0.06440  0.54460  Biso   1.000  C
  C28      1.0000 0.54460  0.84640  0.54460  Biso   1.000  C
  C29      1.0000 0.84640  0.54460  0.54460  Biso   1.000  C
  C30      1.0000 0.06440  0.54460  0.54460  Biso   1.000  C
  C31      1.0000 0.54460  0.06440  0.84640  Biso   1.000  C
  C32      1.0000 0.54460  0.84640  0.06440  Biso   1.000  C
  C33      1.0000 0.47338  0.47338  0.96238  Biso   1.000  C
  C34      1.0000 0.47338  0.47338  0.09086  Biso   1.000  C
  C35      1.0000 0.96238  0.09086  0.47338  Biso   1.000  C
  C36      1.0000 0.09086  0.96238  0.47338  Biso   1.000  C
  C37      1.0000 0.47338  0.96238  0.09086  Biso   1.000  C
  C38      1.0000 0.47338  0.09086  0.96238  Biso   1.000  C
  C39      1.0000 0.96238  0.47338  0.47338  Biso   1.000  C
  C40      1.0000 0.09086  0.47338  0.47338  Biso   1.000  C
  C41      1.0000 0.47338  0.09086  0.47338  Biso   1.000  C
  C42      1.0000 0.47338  0.96238  0.47338  Biso   1.000  C
  C43      1.0000 0.96238  0.47338  0.09086  Biso   1.000  C
  C44      1.0000 0.09086  0.47338  0.96238  Biso   1.000  C
  C45      1.0000 0.52662  0.52662  0.03762  Biso   1.000  C
  C46      1.0000 0.52662  0.52662  0.90914  Biso   1.000  C
  C47      1.0000 0.90914  0.03762  0.52662  Biso   1.000  C
  C48      1.0000 0.03762  0.90914  0.52662  Biso   1.000  C
  C49      1.0000 0.03762  0.52662  0.90914  Biso   1.000  C
  C50      1.0000 0.90914  0.52662  0.03762  Biso   1.000  C
  C51      1.0000 0.52662  0.03762  0.52662  Biso   1.000  C
  C52      1.0000 0.52662  0.90914  0.52662  Biso   1.000  C
  C53      1.0000 0.90914  0.52662  0.52662  Biso   1.000  C
  C54      1.0000 0.03762  0.52662  0.52662  Biso   1.000  C
  C55      1.0000 0.52662  0.03762  0.90914  Biso   1.000  C
  C56      1.0000 0.52662  0.90914  0.03762  Biso   1.000  C
  C57      1.0000 0.38861  0.38861  0.11139  Biso   1.000  C
  C58      1.0000 0.44619  0.44619  0.05381  Biso   1.000  C
  C59      1.0000 0.11139  0.11139  0.38861  Biso   1.000  C
  C60      1.0000 0.05381  0.05381  0.44619  Biso   1.000  C
  C61      1.0000 0.38861  0.11139  0.11139  Biso   1.000  C
  C62      1.0000 0.44619  0.05381  0.05381  Biso   1.000  C
  C63      1.0000 0.11139  0.38861  0.38861  Biso   1.000  C
  C64      1.0000 0.05381  0.44619  0.44619  Biso   1.000  C
  C65      1.0000 0.38861  0.11139  0.38861  Biso   1.000  C
  C66      1.0000 0.44619  0.05381  0.44619  Biso   1.000  C
  C67      1.0000 0.11139  0.38861  0.11139  Biso   1.000  C
  C68      1.0000 0.05381  0.44619  0.05381  Biso   1.000  C
  C69      1.0000 0.61139  0.61139  0.88861  Biso   1.000  C
  C70      1.0000 0.55381  0.55381  0.94619  Biso   1.000  C
  C71      1.0000 0.88861  0.88861  0.61139  Biso   1.000  C
  C72      1.0000 0.94619  0.94619  0.55381  Biso   1.000  C
  C73      1.0000 0.88861  0.61139  0.88861  Biso   1.000  C
  C74      1.0000 0.94619  0.55381  0.94619  Biso   1.000  C
  C75      1.0000 0.61139  0.88861  0.61139  Biso   1.000  C
  C76      1.0000 0.55381  0.94619  0.55381  Biso   1.000  C
  C77      1.0000 0.88861  0.61139  0.61139  Biso   1.000  C
  C78      1.0000 0.94619  0.55381  0.55381  Biso   1.000  C
  C79      1.0000 0.61139  0.88861  0.88861  Biso   1.000  C
  C80      1.0000 0.55381  0.94619  0.94619  Biso   1.000  C
  C81      1.0000 0.25000  0.25000  0.25000  Biso   1.000  C
  C82      1.0000 0.75000  0.75000  0.75000  Biso   1.000  C
  C83      1.0000 0.36607  0.36607  0.07299  Biso   1.000  C
  C84      1.0000 0.36607  0.36607  0.19487  Biso   1.000  C
  C85      1.0000 0.07299  0.19487  0.36607  Biso   1.000  C
  C86      1.0000 0.19487  0.07299  0.36607  Biso   1.000  C
  C87      1.0000 0.36607  0.07299  0.19487  Biso   1.000  C
  C88      1.0000 0.36607  0.19487  0.07299  Biso   1.000  C
  C89      1.0000 0.07299  0.36607  0.36607  Biso   1.000  C
  C90      1.0000 0.19487  0.36607  0.36607  Biso   1.000  C
  C91      1.0000 0.36607  0.19487  0.36607  Biso   1.000  C
  C92      1.0000 0.36607  0.07299  0.36607  Biso   1.000  C
  C93      1.0000 0.07299  0.36607  0.19487  Biso   1.000  C
  C94      1.0000 0.19487  0.36607  0.07299  Biso   1.000  C
  C95      1.0000 0.63393  0.63393  0.92701  Biso   1.000  C
  C96      1.0000 0.63393  0.63393  0.80513  Biso   1.000  C
  C97      1.0000 0.80513  0.92701  0.63393  Biso   1.000  C
  C98      1.0000 0.92701  0.80513  0.63393  Biso   1.000  C
  C99      1.0000 0.92701  0.63393  0.80513  Biso   1.000  C
  C100     1.0000 0.80513  0.63393  0.92701  Biso   1.000  C
  C101     1.0000 0.63393  0.92701  0.63393  Biso   1.000  C
  C102     1.0000 0.63393  0.80513  0.63393  Biso   1.000  C
  C103     1.0000 0.80513  0.63393  0.63393  Biso   1.000  C
  C104     1.0000 0.92701  0.63393  0.63393  Biso   1.000  C
  C105     1.0000 0.63393  0.92701  0.80513  Biso   1.000  C
  C106     1.0000 0.63393  0.80513  0.92701  Biso   1.000  C
  O1       1.0000 0.59471  0.07736  0.72009  Biso   1.000  O
  O2       1.0000 0.59471  0.25235  0.72009  Biso   1.000  O
  O3       1.0000 0.41972  0.25235  0.72009  Biso   1.000  O
  O4       1.0000 0.59471  0.25235  0.54510  Biso   1.000  O
  O5       1.0000 0.01231  0.66316  0.13090  Biso   1.000  O
  O6       1.0000 0.01231  0.83815  0.13090  Biso   1.000  O
  O7       1.0000 0.18730  0.66316  0.13090  Biso   1.000  O
  O8       1.0000 0.01231  0.66316  0.30589  Biso   1.000  O
  O9       1.0000 0.46337  0.89183  0.87853  Biso   1.000  O
  O10      1.0000 0.75315  0.41079  0.58875  Biso   1.000  O
  O11      1.0000 0.23419  0.12101  0.87853  Biso   1.000  O
  O12      1.0000 0.75315  0.41079  0.35957  Biso   1.000  O
  O13      1.0000 0.23419  0.41079  0.58875  Biso   1.000  O
  O14      1.0000 0.75315  0.12101  0.87853  Biso   1.000  O
  O15      1.0000 0.46337  0.41079  0.35957  Biso   1.000  O
  O16      1.0000 0.75315  0.89183  0.87853  Biso   1.000  O
  O17      1.0000 0.75315  0.12101  0.35957  Biso   1.000  O
  O18      1.0000 0.46337  0.41079  0.87853  Biso   1.000  O
  O19      1.0000 0.75315  0.89183  0.58875  Biso   1.000  O
  O20      1.0000 0.23419  0.41079  0.87853  Biso   1.000  O
  O21      1.0000 0.14365  0.50472  0.97246  Biso   1.000  O
  O22      1.0000 0.85387  0.02368  0.26224  Biso   1.000  O
  O23      1.0000 0.37283  0.50472  0.97246  Biso   1.000  O
  O24      1.0000 0.85387  0.79450  0.49142  Biso   1.000  O
  O25      1.0000 0.37283  0.50472  0.26224  Biso   1.000  O
  O26      1.0000 0.85387  0.02368  0.97246  Biso   1.000  O
  O27      1.0000 0.14365  0.50472  0.49142  Biso   1.000  O
  O28      1.0000 0.85387  0.79450  0.97246  Biso   1.000  O
  O29      1.0000 0.85387  0.50472  0.49142  Biso   1.000  O
  O30      1.0000 0.14365  0.02368  0.97246  Biso   1.000  O
  O31      1.0000 0.85387  0.50472  0.26224  Biso   1.000  O
  O32      1.0000 0.37283  0.79450  0.97246  Biso   1.000  O
  O33      1.0000 0.39243  0.91842  0.90071  Biso   1.000  O
  O34      1.0000 0.77532  0.43296  0.51781  Biso   1.000  O
  O35      1.0000 0.26078  0.05007  0.90071  Biso   1.000  O
  O36      1.0000 0.77532  0.43296  0.38616  Biso   1.000  O
  O37      1.0000 0.26078  0.43296  0.51781  Biso   1.000  O
  O38      1.0000 0.77532  0.05007  0.90071  Biso   1.000  O
  O39      1.0000 0.39243  0.43296  0.38616  Biso   1.000  O
  O40      1.0000 0.77532  0.91842  0.90071  Biso   1.000  O
  O41      1.0000 0.77532  0.05007  0.38616  Biso   1.000  O
  O42      1.0000 0.39243  0.43296  0.90071  Biso   1.000  O
  O43      1.0000 0.77532  0.91842  0.51781  Biso   1.000  O
  O44      1.0000 0.26078  0.43296  0.90071  Biso   1.000  O
  O45      1.0000 0.21459  0.48254  0.95029  Biso   1.000  O
  O46      1.0000 0.83170  0.99709  0.33318  Biso   1.000  O
  O47      1.0000 0.34624  0.48254  0.95029  Biso   1.000  O
  O48      1.0000 0.83170  0.86544  0.46483  Biso   1.000  O
  O49      1.0000 0.34624  0.48254  0.33318  Biso   1.000  O
  O50      1.0000 0.83170  0.99709  0.95029  Biso   1.000  O
  O51      1.0000 0.21459  0.48254  0.46483  Biso   1.000  O
  O52      1.0000 0.83170  0.86544  0.95029  Biso   1.000  O
  O53      1.0000 0.83170  0.48254  0.46483  Biso   1.000  O
  O54      1.0000 0.21459  0.99709  0.95029  Biso   1.000  O
  O55      1.0000 0.83170  0.48254  0.33318  Biso   1.000  O
  O56      1.0000 0.34624  0.86544  0.95029  Biso   1.000  O
  O57      1.0000 0.41099  0.06863  0.81632  Biso   1.000  O
  O58      1.0000 0.35460  0.01224  0.87271  Biso   1.000  O
  O59      1.0000 0.69094  0.34858  0.53637  Biso   1.000  O
  O60      1.0000 0.74733  0.40497  0.47998  Biso   1.000  O
  O61      1.0000 0.41099  0.34858  0.53637  Biso   1.000  O
  O62      1.0000 0.35460  0.40497  0.47998  Biso   1.000  O
  O63      1.0000 0.69094  0.06863  0.81632  Biso   1.000  O
  O64      1.0000 0.74733  0.01224  0.87271  Biso   1.000  O
  O65      1.0000 0.69094  0.06863  0.53637  Biso   1.000  O
  O66      1.0000 0.74733  0.01224  0.47998  Biso   1.000  O
  O67      1.0000 0.41099  0.34858  0.81632  Biso   1.000  O
  O68      1.0000 0.35460  0.40497  0.87271  Biso   1.000  O
  O69      1.0000 0.19603  0.56693  0.03467  Biso   1.000  O
  O70      1.0000 0.25242  0.51054  0.97828  Biso   1.000  O
  O71      1.0000 0.91608  0.84688  0.31462  Biso   1.000  O
  O72      1.0000 0.85969  0.90327  0.37101  Biso   1.000  O
  O73      1.0000 0.19603  0.56693  0.31462  Biso   1.000  O
  O74      1.0000 0.25242  0.51054  0.37101  Biso   1.000  O
  O75      1.0000 0.91608  0.84688  0.03467  Biso   1.000  O
  O76      1.0000 0.85969  0.90327  0.97828  Biso   1.000  O
  O77      1.0000 0.91608  0.56693  0.31462  Biso   1.000  O
  O78      1.0000 0.85969  0.51054  0.37101  Biso   1.000  O
  O79      1.0000 0.19603  0.84688  0.03467  Biso   1.000  O
  O80      1.0000 0.25242  0.90327  0.97828  Biso   1.000  O
  O81      1.0000 0.55096  0.20860  0.67635  Biso   1.000  O
  O82      1.0000 0.05606  0.70690  0.17465  Biso   1.000  O
  O83      1.0000 0.49567  0.02970  0.79344  Biso   1.000  O
  O84      1.0000 0.66806  0.32570  0.62106  Biso   1.000  O
  O85      1.0000 0.37206  0.15331  0.79344  Biso   1.000  O
  O86      1.0000 0.66806  0.32570  0.49744  Biso   1.000  O
  O87      1.0000 0.37206  0.32570  0.62106  Biso   1.000  O
  O88      1.0000 0.66806  0.15331  0.79344  Biso   1.000  O
  O89      1.0000 0.49567  0.32570  0.49744  Biso   1.000  O
  O90      1.0000 0.66806  0.02970  0.79344  Biso   1.000  O
  O91      1.0000 0.66806  0.15331  0.49744  Biso   1.000  O
  O92      1.0000 0.49567  0.32570  0.79344  Biso   1.000  O
  O93      1.0000 0.66806  0.02970  0.62106  Biso   1.000  O
  O94      1.0000 0.37206  0.32570  0.79344  Biso   1.000  O
  O95      1.0000 0.11134  0.58981  0.05755  Biso   1.000  O
  O96      1.0000 0.93896  0.88581  0.22993  Biso   1.000  O
  O97      1.0000 0.23496  0.58981  0.05755  Biso   1.000  O
  O98      1.0000 0.93896  0.76219  0.35355  Biso   1.000  O
  O99      1.0000 0.23496  0.58981  0.22993  Biso   1.000  O
  O100     1.0000 0.93896  0.88581  0.05755  Biso   1.000  O
  O101     1.0000 0.11134  0.58981  0.35355  Biso   1.000  O
  O102     1.0000 0.93896  0.76219  0.05755  Biso   1.000  O
  O103     1.0000 0.93896  0.58981  0.35355  Biso   1.000  O
  O104     1.0000 0.11134  0.88581  0.05755  Biso   1.000  O
  O105     1.0000 0.93896  0.58981  0.22993  Biso   1.000  O
  O106     1.0000 0.23496  0.76219  0.05755  Biso   1.000  O
