data_image0
_cell_length_a       18.2888
_cell_length_b       18.2888
_cell_length_c       18.2888
_cell_angle_alpha    60
_cell_angle_beta     60
_cell_angle_gamma    60

_symmetry_space_group_name_H-M    "P 1"
_symmetry_int_tables_number       1

loop_
  _symmetry_equiv_pos_as_xyz
  'x, y, z'

loop_
  _atom_site_label
  _atom_site_occupancy
  _atom_site_fract_x
  _atom_site_fract_y
  _atom_site_fract_z
  _atom_site_thermal_displace_type
  _atom_site_B_iso_or_equiv
  _atom_site_type_symbol
  Zn1      1.0000 0.29344  0.29345  0.11966  Biso   1.000  Zn
  Zn2      1.0000 0.29344  0.29345  0.29345  Biso   1.000  Zn
  Zn3      1.0000 0.11965  0.29345  0.29345  Biso   1.000  Zn
  Zn4      1.0000 0.29344  0.11966  0.29345  Biso   1.000  Zn
  Zn5      1.0000 0.70655  0.70656  0.88034  Biso   1.000  Zn
  Zn6      1.0000 0.70656  0.70655  0.70655  Biso   1.000  Zn
  Zn7      1.0000 0.70655  0.88034  0.70656  Biso   1.000  Zn
  Zn8      1.0000 0.88035  0.70655  0.70655  Biso   1.000  Zn
  H1       1.0000 0.45490  0.45490  0.93490  Biso   1.000  H
  H2       1.0000 0.45490  0.45490  0.15530  Biso   1.000  H
  H3       1.0000 0.93490  0.15530  0.45490  Biso   1.000  H
  H4       1.0000 0.15530  0.93490  0.45490  Biso   1.000  H
  H5       1.0000 0.45490  0.93490  0.15530  Biso   1.000  H
  H6       1.0000 0.45490  0.15530  0.93490  Biso   1.000  H
  H7       1.0000 0.93490  0.45490  0.45490  Biso   1.000  H
  H8       1.0000 0.15530  0.45490  0.45490  Biso   1.000  H
  H9       1.0000 0.45490  0.15530  0.45490  Biso   1.000  H
  H10      1.0000 0.45490  0.93490  0.45490  Biso   1.000  H
  H11      1.0000 0.93490  0.45490  0.15530  Biso   1.000  H
  H12      1.0000 0.15530  0.45490  0.93490  Biso   1.000  H
  H13      1.0000 0.54510  0.54510  0.06510  Biso   1.000  H
  H14      1.0000 0.54510  0.54510  0.84470  Biso   1.000  H
  H15      1.0000 0.84470  0.06510  0.54510  Biso   1.000  H
  H16      1.0000 0.06510  0.84470  0.54510  Biso   1.000  H
  H17      1.0000 0.06510  0.54510  0.84470  Biso   1.000  H
  H18      1.0000 0.84470  0.54510  0.06510  Biso   1.000  H
  H19      1.0000 0.54510  0.06510  0.54510  Biso   1.000  H
  H20      1.0000 0.54510  0.84470  0.54510  Biso   1.000  H
  H21      1.0000 0.84470  0.54510  0.54510  Biso   1.000  H
  H22      1.0000 0.06510  0.54510  0.54510  Biso   1.000  H
  H23      1.0000 0.54510  0.06510  0.84470  Biso   1.000  H
  H24      1.0000 0.54510  0.84470  0.06510  Biso   1.000  H
  C1       1.0000 0.47314  0.47314  0.96174  Biso   1.000  C
  C2       1.0000 0.47314  0.47314  0.09198  Biso   1.000  C
  C3       1.0000 0.96174  0.09198  0.47314  Biso   1.000  C
  C4       1.0000 0.09198  0.96174  0.47314  Biso   1.000  C
  C5       1.0000 0.47314  0.96174  0.09198  Biso   1.000  C
  C6       1.0000 0.47314  0.09198  0.96174  Biso   1.000  C
  C7       1.0000 0.96174  0.47314  0.47314  Biso   1.000  C
  C8       1.0000 0.09198  0.47314  0.47314  Biso   1.000  C
  C9       1.0000 0.47314  0.09198  0.47314  Biso   1.000  C
  C10      1.0000 0.47314  0.96174  0.47314  Biso   1.000  C
  C11      1.0000 0.96174  0.47314  0.09198  Biso   1.000  C
  C12      1.0000 0.09198  0.47314  0.96174  Biso   1.000  C
  C13      1.0000 0.52686  0.52686  0.03826  Biso   1.000  C
  C14      1.0000 0.52686  0.52686  0.90802  Biso   1.000  C
  C15      1.0000 0.90802  0.03826  0.52686  Biso   1.000  C
  C16      1.0000 0.03826  0.90802  0.52686  Biso   1.000  C
  C17      1.0000 0.03826  0.52686  0.90802  Biso   1.000  C
  C18      1.0000 0.90802  0.52686  0.03826  Biso   1.000  C
  C19      1.0000 0.52686  0.03826  0.52686  Biso   1.000  C
  C20      1.0000 0.52686  0.90802  0.52686  Biso   1.000  C
  C21      1.0000 0.90802  0.52686  0.52686  Biso   1.000  C
  C22      1.0000 0.03826  0.52686  0.52686  Biso   1.000  C
  C23      1.0000 0.52686  0.03826  0.90802  Biso   1.000  C
  C24      1.0000 0.52686  0.90802  0.03826  Biso   1.000  C
  C25      1.0000 0.38849  0.38849  0.11151  Biso   1.000  C
  C26      1.0000 0.44624  0.44624  0.05376  Biso   1.000  C
  C27      1.0000 0.11151  0.11151  0.38849  Biso   1.000  C
  C28      1.0000 0.05376  0.05376  0.44624  Biso   1.000  C
  C29      1.0000 0.38849  0.11151  0.11151  Biso   1.000  C
  C30      1.0000 0.44624  0.05376  0.05376  Biso   1.000  C
  C31      1.0000 0.11151  0.38849  0.38849  Biso   1.000  C
  C32      1.0000 0.05376  0.44624  0.44624  Biso   1.000  C
  C33      1.0000 0.38849  0.11151  0.38849  Biso   1.000  C
  C34      1.0000 0.44624  0.05376  0.44624  Biso   1.000  C
  C35      1.0000 0.11151  0.38849  0.11151  Biso   1.000  C
  C36      1.0000 0.05376  0.44624  0.05376  Biso   1.000  C
  C37      1.0000 0.61151  0.61151  0.88849  Biso   1.000  C
  C38      1.0000 0.55376  0.55376  0.94624  Biso   1.000  C
  C39      1.0000 0.88849  0.88849  0.61151  Biso   1.000  C
  C40      1.0000 0.94624  0.94624  0.55376  Biso   1.000  C
  C41      1.0000 0.88849  0.61151  0.88849  Biso   1.000  C
  C42      1.0000 0.94624  0.55376  0.94624  Biso   1.000  C
  C43      1.0000 0.61151  0.88849  0.61151  Biso   1.000  C
  C44      1.0000 0.55376  0.94624  0.55376  Biso   1.000  C
  C45      1.0000 0.88849  0.61151  0.61151  Biso   1.000  C
  C46      1.0000 0.94624  0.55376  0.55376  Biso   1.000  C
  C47      1.0000 0.61151  0.88849  0.88849  Biso   1.000  C
  C48      1.0000 0.55376  0.94624  0.94624  Biso   1.000  C
  O1       1.0000 0.25000  0.25000  0.25000  Biso   1.000  O
  O2       1.0000 0.75000  0.75000  0.75000  Biso   1.000  O
  O3       1.0000 0.36620  0.36620  0.07286  Biso   1.000  O
  O4       1.0000 0.36620  0.36620  0.19474  Biso   1.000  O
  O5       1.0000 0.07286  0.19474  0.36620  Biso   1.000  O
  O6       1.0000 0.19474  0.07286  0.36620  Biso   1.000  O
  O7       1.0000 0.36620  0.07286  0.19474  Biso   1.000  O
  O8       1.0000 0.36620  0.19474  0.07286  Biso   1.000  O
  O9       1.0000 0.07286  0.36620  0.36620  Biso   1.000  O
  O10      1.0000 0.19474  0.36620  0.36620  Biso   1.000  O
  O11      1.0000 0.36620  0.19474  0.36620  Biso   1.000  O
  O12      1.0000 0.36620  0.07286  0.36620  Biso   1.000  O
  O13      1.0000 0.07286  0.36620  0.19474  Biso   1.000  O
  O14      1.0000 0.19474  0.36620  0.07286  Biso   1.000  O
  O15      1.0000 0.63380  0.63380  0.92714  Biso   1.000  O
  O16      1.0000 0.63380  0.63380  0.80526  Biso   1.000  O
  O17      1.0000 0.80526  0.92714  0.63380  Biso   1.000  O
  O18      1.0000 0.92714  0.80526  0.63380  Biso   1.000  O
  O19      1.0000 0.92714  0.63380  0.80526  Biso   1.000  O
  O20      1.0000 0.80526  0.63380  0.92714  Biso   1.000  O
  O21      1.0000 0.63380  0.92714  0.63380  Biso   1.000  O
  O22      1.0000 0.63380  0.80526  0.63380  Biso   1.000  O
  O23      1.0000 0.80526  0.63380  0.63380  Biso   1.000  O
  O24      1.0000 0.92714  0.63380  0.63380  Biso   1.000  O
  O25      1.0000 0.63380  0.92714  0.80526  Biso   1.000  O
  O26      1.0000 0.63380  0.80526  0.92714  Biso   1.000  O
  Zn9      1.0000 0.68755  0.47843  0.35035  Biso   1.000  Zn
  Zn10     1.0000 0.51329  0.47843  0.52462  Biso   1.000  Zn
  Zn11     1.0000 0.51329  0.65269  0.35035  Biso   1.000  Zn
  Zn12     1.0000 0.51329  0.47843  0.35035  Biso   1.000  Zn
  Zn13     1.0000 0.92855  0.06477  0.93669  Biso   1.000  Zn
  Zn14     1.0000 0.10282  0.06477  0.76242  Biso   1.000  Zn
  Zn15     1.0000 0.10282  0.06477  0.93669  Biso   1.000  Zn
  Zn16     1.0000 0.10282  0.89050  0.93669  Biso   1.000  Zn
  H25      1.0000 0.87306  0.31697  0.48777  Biso   1.000  H
  H26      1.0000 0.65230  0.31697  0.70852  Biso   1.000  H
  H27      1.0000 0.35343  0.83660  0.18889  Biso   1.000  H
  H28      1.0000 0.35343  0.61584  0.18889  Biso   1.000  H
  H29      1.0000 0.35343  0.61584  0.70852  Biso   1.000  H
  H30      1.0000 0.35343  0.83660  0.48777  Biso   1.000  H
  H31      1.0000 0.87306  0.31697  0.18889  Biso   1.000  H
  H32      1.0000 0.65230  0.31697  0.18889  Biso   1.000  H
  H33      1.0000 0.65230  0.83660  0.18889  Biso   1.000  H
  H34      1.0000 0.87306  0.61584  0.18889  Biso   1.000  H
  H35      1.0000 0.35343  0.31697  0.70852  Biso   1.000  H
  H36      1.0000 0.35343  0.31697  0.48777  Biso   1.000  H
  H37      1.0000 0.74305  0.22622  0.79927  Biso   1.000  H
  H38      1.0000 0.96381  0.22622  0.57851  Biso   1.000  H
  H39      1.0000 0.26268  0.92735  0.09815  Biso   1.000  H
  H40      1.0000 0.26268  0.70659  0.09815  Biso   1.000  H
  H41      1.0000 0.26268  0.22622  0.57851  Biso   1.000  H
  H42      1.0000 0.26268  0.22622  0.79927  Biso   1.000  H
  H43      1.0000 0.74305  0.92735  0.09815  Biso   1.000  H
  H44      1.0000 0.96381  0.70659  0.09815  Biso   1.000  H
  H45      1.0000 0.96381  0.22622  0.09815  Biso   1.000  H
  H46      1.0000 0.74305  0.22622  0.09815  Biso   1.000  H
  H47      1.0000 0.26268  0.92735  0.57851  Biso   1.000  H
  H48      1.0000 0.26268  0.70659  0.79927  Biso   1.000  H
  C49      1.0000 0.84585  0.29809  0.55274  Biso   1.000  C
  C50      1.0000 0.71728  0.29809  0.68131  Biso   1.000  C
  C51      1.0000 0.33455  0.80939  0.17001  Biso   1.000  C
  C52      1.0000 0.33455  0.68082  0.17001  Biso   1.000  C
  C53      1.0000 0.33455  0.68082  0.68131  Biso   1.000  C
  C54      1.0000 0.33455  0.80939  0.55274  Biso   1.000  C
  C55      1.0000 0.84585  0.29809  0.17001  Biso   1.000  C
  C56      1.0000 0.71728  0.29809  0.17001  Biso   1.000  C
  C57      1.0000 0.71728  0.80939  0.17001  Biso   1.000  C
  C58      1.0000 0.84585  0.68082  0.17001  Biso   1.000  C
  C59      1.0000 0.33455  0.29809  0.68131  Biso   1.000  C
  C60      1.0000 0.33455  0.29809  0.55274  Biso   1.000  C
  C61      1.0000 0.77026  0.24510  0.73430  Biso   1.000  C
  C62      1.0000 0.89883  0.24510  0.60573  Biso   1.000  C
  C63      1.0000 0.28156  0.86237  0.11703  Biso   1.000  C
  C64      1.0000 0.28156  0.73380  0.11703  Biso   1.000  C
  C65      1.0000 0.28156  0.24510  0.60573  Biso   1.000  C
  C66      1.0000 0.28156  0.24510  0.73430  Biso   1.000  C
  C67      1.0000 0.77026  0.86237  0.11703  Biso   1.000  C
  C68      1.0000 0.89883  0.73380  0.11703  Biso   1.000  C
  C69      1.0000 0.89883  0.24510  0.11703  Biso   1.000  C
  C70      1.0000 0.77026  0.24510  0.11703  Biso   1.000  C
  C71      1.0000 0.28156  0.86237  0.60573  Biso   1.000  C
  C72      1.0000 0.28156  0.73380  0.73430  Biso   1.000  C
  C73      1.0000 0.69538  0.38347  0.53244  Biso   1.000  C
  C74      1.0000 0.75340  0.32545  0.59046  Biso   1.000  C
  C75      1.0000 0.41834  0.66052  0.25540  Biso   1.000  C
  C76      1.0000 0.36031  0.71854  0.19737  Biso   1.000  C
  C77      1.0000 0.41834  0.66052  0.53244  Biso   1.000  C
  C78      1.0000 0.36031  0.71854  0.59046  Biso   1.000  C
  C79      1.0000 0.69538  0.38347  0.25540  Biso   1.000  C
  C80      1.0000 0.75340  0.32545  0.19737  Biso   1.000  C
  C81      1.0000 0.69538  0.66052  0.25540  Biso   1.000  C
  C82      1.0000 0.75340  0.71854  0.19737  Biso   1.000  C
  C83      1.0000 0.41834  0.38347  0.53244  Biso   1.000  C
  C84      1.0000 0.36031  0.32545  0.59046  Biso   1.000  C
  C85      1.0000 0.92073  0.15972  0.75460  Biso   1.000  C
  C86      1.0000 0.86271  0.21774  0.69658  Biso   1.000  C
  C87      1.0000 0.19777  0.88267  0.03164  Biso   1.000  C
  C88      1.0000 0.25580  0.82465  0.08966  Biso   1.000  C
  C89      1.0000 0.19777  0.15972  0.75460  Biso   1.000  C
  C90      1.0000 0.25580  0.21774  0.69658  Biso   1.000  C
  C91      1.0000 0.92073  0.88267  0.03164  Biso   1.000  C
  C92      1.0000 0.86271  0.82465  0.08966  Biso   1.000  C
  C93      1.0000 0.92073  0.15972  0.03164  Biso   1.000  C
  C94      1.0000 0.86271  0.21774  0.08966  Biso   1.000  C
  C95      1.0000 0.19777  0.88267  0.75460  Biso   1.000  C
  C96      1.0000 0.25580  0.82465  0.69658  Biso   1.000  C
  O27      1.0000 0.73467  0.40568  0.44873  Biso   1.000  O
  O28      1.0000 0.61167  0.40568  0.57173  Biso   1.000  O
  O29      1.0000 0.44054  0.69981  0.27760  Biso   1.000  O
  O30      1.0000 0.44054  0.57681  0.27760  Biso   1.000  O
  O31      1.0000 0.44054  0.57681  0.57173  Biso   1.000  O
  O32      1.0000 0.44054  0.69981  0.44873  Biso   1.000  O
  O33      1.0000 0.73467  0.40568  0.27760  Biso   1.000  O
  O34      1.0000 0.61167  0.40568  0.27760  Biso   1.000  O
  O35      1.0000 0.61167  0.69981  0.27760  Biso   1.000  O
  O36      1.0000 0.73467  0.57681  0.27760  Biso   1.000  O
  O37      1.0000 0.44054  0.40568  0.57173  Biso   1.000  O
  O38      1.0000 0.44054  0.40568  0.44873  Biso   1.000  O
  O39      1.0000 0.88144  0.13751  0.83830  Biso   1.000  O
  O40      1.0000 0.00443  0.13751  0.71531  Biso   1.000  O
  O41      1.0000 0.17557  0.96638  0.00943  Biso   1.000  O
  O42      1.0000 0.17557  0.84338  0.00943  Biso   1.000  O
  O43      1.0000 0.17557  0.13751  0.71531  Biso   1.000  O
  O44      1.0000 0.17557  0.13751  0.83830  Biso   1.000  O
  O45      1.0000 0.88144  0.96638  0.00943  Biso   1.000  O
  O46      1.0000 0.00443  0.84338  0.00943  Biso   1.000  O
  O47      1.0000 0.00443  0.13751  0.00943  Biso   1.000  O
  O48      1.0000 0.88144  0.13751  0.00943  Biso   1.000  O
  O49      1.0000 0.17557  0.96638  0.71531  Biso   1.000  O
  O50      1.0000 0.17557  0.84338  0.83830  Biso   1.000  O
  O51      1.0000 0.55686  0.52199  0.39392  Biso   1.000  O
  O52      1.0000 0.05925  0.02120  0.89312  Biso   1.000  O
