data_image0
_cell_length_a       18.2888
_cell_length_b       18.2888
_cell_length_c       18.2888
_cell_angle_alpha    60
_cell_angle_beta     60
_cell_angle_gamma    60

_symmetry_space_group_name_H-M    "P 1"
_symmetry_int_tables_number       1

loop_
  _symmetry_equiv_pos_as_xyz
  'x, y, z'

loop_
  _atom_site_label
  _atom_site_occupancy
  _atom_site_fract_x
  _atom_site_fract_y
  _atom_site_fract_z
  _atom_site_thermal_displace_type
  _atom_site_B_iso_or_equiv
  _atom_site_type_symbol
  Zn1      1.0000 0.29344  0.29345  0.11966  Biso   1.000  Zn
  Zn2      1.0000 0.29344  0.29345  0.29345  Biso   1.000  Zn
  Zn3      1.0000 0.11965  0.29345  0.29345  Biso   1.000  Zn
  Zn4      1.0000 0.29344  0.11966  0.29345  Biso   1.000  Zn
  Zn5      1.0000 0.70655  0.70656  0.88034  Biso   1.000  Zn
  Zn6      1.0000 0.70656  0.70655  0.70655  Biso   1.000  Zn
  Zn7      1.0000 0.70655  0.88034  0.70656  Biso   1.000  Zn
  Zn8      1.0000 0.88035  0.70655  0.70655  Biso   1.000  Zn
  H1       1.0000 0.45490  0.45490  0.93490  Biso   1.000  H
  H2       1.0000 0.45490  0.45490  0.15530  Biso   1.000  H
  H3       1.0000 0.93490  0.15530  0.45490  Biso   1.000  H
  H4       1.0000 0.15530  0.93490  0.45490  Biso   1.000  H
  H5       1.0000 0.45490  0.93490  0.15530  Biso   1.000  H
  H6       1.0000 0.45490  0.15530  0.93490  Biso   1.000  H
  H7       1.0000 0.93490  0.45490  0.45490  Biso   1.000  H
  H8       1.0000 0.15530  0.45490  0.45490  Biso   1.000  H
  H9       1.0000 0.45490  0.15530  0.45490  Biso   1.000  H
  H10      1.0000 0.45490  0.93490  0.45490  Biso   1.000  H
  H11      1.0000 0.93490  0.45490  0.15530  Biso   1.000  H
  H12      1.0000 0.15530  0.45490  0.93490  Biso   1.000  H
  H13      1.0000 0.54510  0.54510  0.06510  Biso   1.000  H
  H14      1.0000 0.54510  0.54510  0.84470  Biso   1.000  H
  H15      1.0000 0.84470  0.06510  0.54510  Biso   1.000  H
  H16      1.0000 0.06510  0.84470  0.54510  Biso   1.000  H
  H17      1.0000 0.06510  0.54510  0.84470  Biso   1.000  H
  H18      1.0000 0.84470  0.54510  0.06510  Biso   1.000  H
  H19      1.0000 0.54510  0.06510  0.54510  Biso   1.000  H
  H20      1.0000 0.54510  0.84470  0.54510  Biso   1.000  H
  H21      1.0000 0.84470  0.54510  0.54510  Biso   1.000  H
  H22      1.0000 0.06510  0.54510  0.54510  Biso   1.000  H
  H23      1.0000 0.54510  0.06510  0.84470  Biso   1.000  H
  H24      1.0000 0.54510  0.84470  0.06510  Biso   1.000  H
  C1       1.0000 0.47314  0.47314  0.96174  Biso   1.000  C
  C2       1.0000 0.47314  0.47314  0.09198  Biso   1.000  C
  C3       1.0000 0.96174  0.09198  0.47314  Biso   1.000  C
  C4       1.0000 0.09198  0.96174  0.47314  Biso   1.000  C
  C5       1.0000 0.47314  0.96174  0.09198  Biso   1.000  C
  C6       1.0000 0.47314  0.09198  0.96174  Biso   1.000  C
  C7       1.0000 0.96174  0.47314  0.47314  Biso   1.000  C
  C8       1.0000 0.09198  0.47314  0.47314  Biso   1.000  C
  C9       1.0000 0.47314  0.09198  0.47314  Biso   1.000  C
  C10      1.0000 0.47314  0.96174  0.47314  Biso   1.000  C
  C11      1.0000 0.96174  0.47314  0.09198  Biso   1.000  C
  C12      1.0000 0.09198  0.47314  0.96174  Biso   1.000  C
  C13      1.0000 0.52686  0.52686  0.03826  Biso   1.000  C
  C14      1.0000 0.52686  0.52686  0.90802  Biso   1.000  C
  C15      1.0000 0.90802  0.03826  0.52686  Biso   1.000  C
  C16      1.0000 0.03826  0.90802  0.52686  Biso   1.000  C
  C17      1.0000 0.03826  0.52686  0.90802  Biso   1.000  C
  C18      1.0000 0.90802  0.52686  0.03826  Biso   1.000  C
  C19      1.0000 0.52686  0.03826  0.52686  Biso   1.000  C
  C20      1.0000 0.52686  0.90802  0.52686  Biso   1.000  C
  C21      1.0000 0.90802  0.52686  0.52686  Biso   1.000  C
  C22      1.0000 0.03826  0.52686  0.52686  Biso   1.000  C
  C23      1.0000 0.52686  0.03826  0.90802  Biso   1.000  C
  C24      1.0000 0.52686  0.90802  0.03826  Biso   1.000  C
  C25      1.0000 0.38849  0.38849  0.11151  Biso   1.000  C
  C26      1.0000 0.44624  0.44624  0.05376  Biso   1.000  C
  C27      1.0000 0.11151  0.11151  0.38849  Biso   1.000  C
  C28      1.0000 0.05376  0.05376  0.44624  Biso   1.000  C
  C29      1.0000 0.38849  0.11151  0.11151  Biso   1.000  C
  C30      1.0000 0.44624  0.05376  0.05376  Biso   1.000  C
  C31      1.0000 0.11151  0.38849  0.38849  Biso   1.000  C
  C32      1.0000 0.05376  0.44624  0.44624  Biso   1.000  C
  C33      1.0000 0.38849  0.11151  0.38849  Biso   1.000  C
  C34      1.0000 0.44624  0.05376  0.44624  Biso   1.000  C
  C35      1.0000 0.11151  0.38849  0.11151  Biso   1.000  C
  C36      1.0000 0.05376  0.44624  0.05376  Biso   1.000  C
  C37      1.0000 0.61151  0.61151  0.88849  Biso   1.000  C
  C38      1.0000 0.55376  0.55376  0.94624  Biso   1.000  C
  C39      1.0000 0.88849  0.88849  0.61151  Biso   1.000  C
  C40      1.0000 0.94624  0.94624  0.55376  Biso   1.000  C
  C41      1.0000 0.88849  0.61151  0.88849  Biso   1.000  C
  C42      1.0000 0.94624  0.55376  0.94624  Biso   1.000  C
  C43      1.0000 0.61151  0.88849  0.61151  Biso   1.000  C
  C44      1.0000 0.55376  0.94624  0.55376  Biso   1.000  C
  C45      1.0000 0.88849  0.61151  0.61151  Biso   1.000  C
  C46      1.0000 0.94624  0.55376  0.55376  Biso   1.000  C
  C47      1.0000 0.61151  0.88849  0.88849  Biso   1.000  C
  C48      1.0000 0.55376  0.94624  0.94624  Biso   1.000  C
  O1       1.0000 0.25000  0.25000  0.25000  Biso   1.000  O
  O2       1.0000 0.75000  0.75000  0.75000  Biso   1.000  O
  O3       1.0000 0.36620  0.36620  0.07286  Biso   1.000  O
  O4       1.0000 0.36620  0.36620  0.19474  Biso   1.000  O
  O5       1.0000 0.07286  0.19474  0.36620  Biso   1.000  O
  O6       1.0000 0.19474  0.07286  0.36620  Biso   1.000  O
  O7       1.0000 0.36620  0.07286  0.19474  Biso   1.000  O
  O8       1.0000 0.36620  0.19474  0.07286  Biso   1.000  O
  O9       1.0000 0.07286  0.36620  0.36620  Biso   1.000  O
  O10      1.0000 0.19474  0.36620  0.36620  Biso   1.000  O
  O11      1.0000 0.36620  0.19474  0.36620  Biso   1.000  O
  O12      1.0000 0.36620  0.07286  0.36620  Biso   1.000  O
  O13      1.0000 0.07286  0.36620  0.19474  Biso   1.000  O
  O14      1.0000 0.19474  0.36620  0.07286  Biso   1.000  O
  O15      1.0000 0.63380  0.63380  0.92714  Biso   1.000  O
  O16      1.0000 0.63380  0.63380  0.80526  Biso   1.000  O
  O17      1.0000 0.80526  0.92714  0.63380  Biso   1.000  O
  O18      1.0000 0.92714  0.80526  0.63380  Biso   1.000  O
  O19      1.0000 0.92714  0.63380  0.80526  Biso   1.000  O
  O20      1.0000 0.80526  0.63380  0.92714  Biso   1.000  O
  O21      1.0000 0.63380  0.92714  0.63380  Biso   1.000  O
  O22      1.0000 0.63380  0.80526  0.63380  Biso   1.000  O
  O23      1.0000 0.80526  0.63380  0.63380  Biso   1.000  O
  O24      1.0000 0.92714  0.63380  0.63380  Biso   1.000  O
  O25      1.0000 0.63380  0.92714  0.80526  Biso   1.000  O
  O26      1.0000 0.63380  0.80526  0.92714  Biso   1.000  O
  Zn9      1.0000 0.59517  0.07284  0.72191  Biso   1.000  Zn
  Zn10     1.0000 0.59517  0.25037  0.72191  Biso   1.000  Zn
  Zn11     1.0000 0.41765  0.25037  0.72191  Biso   1.000  Zn
  Zn12     1.0000 0.59517  0.25037  0.54439  Biso   1.000  Zn
  Zn13     1.0000 0.00914  0.66070  0.13224  Biso   1.000  Zn
  Zn14     1.0000 0.00914  0.83822  0.13224  Biso   1.000  Zn
  Zn15     1.0000 0.18666  0.66070  0.13224  Biso   1.000  Zn
  Zn16     1.0000 0.00914  0.66070  0.30976  Biso   1.000  Zn
  H25      1.0000 0.44861  0.89342  0.88490  Biso   1.000  H
  H26      1.0000 0.75817  0.41336  0.57534  Biso   1.000  H
  H27      1.0000 0.23823  0.10380  0.88490  Biso   1.000  H
  H28      1.0000 0.75817  0.41336  0.36496  Biso   1.000  H
  H29      1.0000 0.23823  0.41336  0.57534  Biso   1.000  H
  H30      1.0000 0.75817  0.10380  0.88490  Biso   1.000  H
  H31      1.0000 0.44861  0.41336  0.36496  Biso   1.000  H
  H32      1.0000 0.75817  0.89342  0.88490  Biso   1.000  H
  H33      1.0000 0.75817  0.10380  0.36496  Biso   1.000  H
  H34      1.0000 0.44861  0.41336  0.88490  Biso   1.000  H
  H35      1.0000 0.75817  0.89342  0.57534  Biso   1.000  H
  H36      1.0000 0.23823  0.41336  0.88490  Biso   1.000  H
  H37      1.0000 0.15570  0.49770  0.96924  Biso   1.000  H
  H38      1.0000 0.84614  0.01764  0.27880  Biso   1.000  H
  H39      1.0000 0.36609  0.49770  0.96924  Biso   1.000  H
  H40      1.0000 0.84614  0.80726  0.48919  Biso   1.000  H
  H41      1.0000 0.36609  0.49770  0.27880  Biso   1.000  H
  H42      1.0000 0.84614  0.01764  0.96924  Biso   1.000  H
  H43      1.0000 0.15570  0.49770  0.48919  Biso   1.000  H
  H44      1.0000 0.84614  0.80726  0.96924  Biso   1.000  H
  H45      1.0000 0.84614  0.49770  0.48919  Biso   1.000  H
  H46      1.0000 0.15570  0.01764  0.96924  Biso   1.000  H
  H47      1.0000 0.84614  0.49770  0.27880  Biso   1.000  H
  H48      1.0000 0.36609  0.80726  0.96924  Biso   1.000  H
  C49      1.0000 0.39611  0.91626  0.89973  Biso   1.000  C
  C50      1.0000 0.77300  0.42819  0.52285  Biso   1.000  C
  C51      1.0000 0.26107  0.05131  0.89973  Biso   1.000  C
  C52      1.0000 0.77300  0.42819  0.38780  Biso   1.000  C
  C53      1.0000 0.26107  0.42819  0.52285  Biso   1.000  C
  C54      1.0000 0.77300  0.05131  0.89973  Biso   1.000  C
  C55      1.0000 0.39611  0.42819  0.38780  Biso   1.000  C
  C56      1.0000 0.77300  0.91626  0.89973  Biso   1.000  C
  C57      1.0000 0.77300  0.05131  0.38780  Biso   1.000  C
  C58      1.0000 0.39611  0.42819  0.89973  Biso   1.000  C
  C59      1.0000 0.77300  0.91626  0.52285  Biso   1.000  C
  C60      1.0000 0.26107  0.42819  0.89973  Biso   1.000  C
  C61      1.0000 0.20820  0.48288  0.95442  Biso   1.000  C
  C62      1.0000 0.83132  0.99480  0.33130  Biso   1.000  C
  C63      1.0000 0.34324  0.48288  0.95442  Biso   1.000  C
  C64      1.0000 0.83132  0.85976  0.46634  Biso   1.000  C
  C65      1.0000 0.34324  0.48288  0.33130  Biso   1.000  C
  C66      1.0000 0.83132  0.99480  0.95442  Biso   1.000  C
  C67      1.0000 0.20820  0.48288  0.46634  Biso   1.000  C
  C68      1.0000 0.83132  0.85976  0.95442  Biso   1.000  C
  C69      1.0000 0.83132  0.48288  0.46634  Biso   1.000  C
  C70      1.0000 0.20820  0.99480  0.95442  Biso   1.000  C
  C71      1.0000 0.83132  0.48288  0.33130  Biso   1.000  C
  C72      1.0000 0.34324  0.85976  0.95442  Biso   1.000  C
  C73      1.0000 0.41515  0.07034  0.81317  Biso   1.000  C
  C74      1.0000 0.35454  0.00973  0.87378  Biso   1.000  C
  C75      1.0000 0.68644  0.34163  0.54188  Biso   1.000  C
  C76      1.0000 0.74705  0.40224  0.48127  Biso   1.000  C
  C77      1.0000 0.41515  0.34163  0.54188  Biso   1.000  C
  C78      1.0000 0.35454  0.40224  0.48127  Biso   1.000  C
  C79      1.0000 0.68644  0.07034  0.81317  Biso   1.000  C
  C80      1.0000 0.74705  0.00973  0.87378  Biso   1.000  C
  C81      1.0000 0.68644  0.07034  0.54188  Biso   1.000  C
  C82      1.0000 0.74705  0.00973  0.48127  Biso   1.000  C
  C83      1.0000 0.41515  0.34163  0.81317  Biso   1.000  C
  C84      1.0000 0.35454  0.40224  0.87378  Biso   1.000  C
  C85      1.0000 0.18916  0.56943  0.04097  Biso   1.000  C
  C86      1.0000 0.24977  0.50882  0.98036  Biso   1.000  C
  C87      1.0000 0.91787  0.84072  0.31227  Biso   1.000  C
  C88      1.0000 0.85726  0.90133  0.37288  Biso   1.000  C
  C89      1.0000 0.18916  0.56943  0.31227  Biso   1.000  C
  C90      1.0000 0.24977  0.50882  0.37288  Biso   1.000  C
  C91      1.0000 0.91787  0.84072  0.04097  Biso   1.000  C
  C92      1.0000 0.85726  0.90133  0.98036  Biso   1.000  C
  C93      1.0000 0.91787  0.56943  0.31227  Biso   1.000  C
  C94      1.0000 0.85726  0.50882  0.37288  Biso   1.000  C
  C95      1.0000 0.18916  0.84072  0.04097  Biso   1.000  C
  C96      1.0000 0.24977  0.90133  0.98036  Biso   1.000  C
  O27      1.0000 0.55079  0.20599  0.67753  Biso   1.000  O
  O28      1.0000 0.05352  0.70508  0.17662  Biso   1.000  O
  O29      1.0000 0.49710  0.02646  0.79414  Biso   1.000  O
  O30      1.0000 0.66741  0.32260  0.62383  Biso   1.000  O
  O31      1.0000 0.37127  0.15229  0.79414  Biso   1.000  O
  O32      1.0000 0.66741  0.32260  0.49800  Biso   1.000  O
  O33      1.0000 0.37127  0.32260  0.62383  Biso   1.000  O
  O34      1.0000 0.66741  0.15229  0.79414  Biso   1.000  O
  O35      1.0000 0.49710  0.32260  0.49800  Biso   1.000  O
  O36      1.0000 0.66741  0.02646  0.79414  Biso   1.000  O
  O37      1.0000 0.66741  0.15229  0.49800  Biso   1.000  O
  O38      1.0000 0.49710  0.32260  0.79414  Biso   1.000  O
  O39      1.0000 0.66741  0.02646  0.62383  Biso   1.000  O
  O40      1.0000 0.37127  0.32260  0.79414  Biso   1.000  O
  O41      1.0000 0.10722  0.58847  0.06001  Biso   1.000  O
  O42      1.0000 0.93691  0.88460  0.23032  Biso   1.000  O
  O43      1.0000 0.23304  0.58847  0.06001  Biso   1.000  O
  O44      1.0000 0.93691  0.75878  0.35615  Biso   1.000  O
  O45      1.0000 0.23304  0.58847  0.23032  Biso   1.000  O
  O46      1.0000 0.93691  0.88460  0.06001  Biso   1.000  O
  O47      1.0000 0.10722  0.58847  0.35615  Biso   1.000  O
  O48      1.0000 0.93691  0.75878  0.06001  Biso   1.000  O
  O49      1.0000 0.93691  0.58847  0.35615  Biso   1.000  O
  O50      1.0000 0.10722  0.88460  0.06001  Biso   1.000  O
  O51      1.0000 0.93691  0.58847  0.23032  Biso   1.000  O
  O52      1.0000 0.23304  0.75878  0.06001  Biso   1.000  O
