data_image0
_cell_length_a       18.2205
_cell_length_b       18.2205
_cell_length_c       18.2205
_cell_angle_alpha    60
_cell_angle_beta     60
_cell_angle_gamma    60

_symmetry_space_group_name_H-M    "P 1"
_symmetry_int_tables_number       1

loop_
  _symmetry_equiv_pos_as_xyz
  'x, y, z'

loop_
  _atom_site_label
  _atom_site_occupancy
  _atom_site_fract_x
  _atom_site_fract_y
  _atom_site_fract_z
  _atom_site_thermal_displace_type
  _atom_site_B_iso_or_equiv
  _atom_site_type_symbol
  C1       1.0000 0.29361  0.29361  0.11917  Biso   1.000  C
  C2       1.0000 0.29361  0.29361  0.29361  Biso   1.000  C
  C3       1.0000 0.11917  0.29361  0.29361  Biso   1.000  C
  C4       1.0000 0.29361  0.11917  0.29361  Biso   1.000  C
  C5       1.0000 0.70639  0.70639  0.88083  Biso   1.000  C
  C6       1.0000 0.70639  0.70639  0.70639  Biso   1.000  C
  C7       1.0000 0.70639  0.88083  0.70639  Biso   1.000  C
  C8       1.0000 0.88083  0.70639  0.70639  Biso   1.000  C
  C9       1.0000 0.45580  0.45580  0.93700  Biso   1.000  C
  C10      1.0000 0.45580  0.45580  0.15140  Biso   1.000  C
  C11      1.0000 0.93700  0.15140  0.45580  Biso   1.000  C
  C12      1.0000 0.15140  0.93700  0.45580  Biso   1.000  C
  C13      1.0000 0.45580  0.93700  0.15140  Biso   1.000  C
  C14      1.0000 0.45580  0.15140  0.93700  Biso   1.000  C
  C15      1.0000 0.93700  0.45580  0.45580  Biso   1.000  C
  C16      1.0000 0.15140  0.45580  0.45580  Biso   1.000  C
  C17      1.0000 0.45580  0.15140  0.45580  Biso   1.000  C
  C18      1.0000 0.45580  0.93700  0.45580  Biso   1.000  C
  C19      1.0000 0.93700  0.45580  0.15140  Biso   1.000  C
  C20      1.0000 0.15140  0.45580  0.93700  Biso   1.000  C
  C21      1.0000 0.54420  0.54420  0.06300  Biso   1.000  C
  C22      1.0000 0.54420  0.54420  0.84860  Biso   1.000  C
  C23      1.0000 0.84860  0.06300  0.54420  Biso   1.000  C
  C24      1.0000 0.06300  0.84860  0.54420  Biso   1.000  C
  C25      1.0000 0.06300  0.54420  0.84860  Biso   1.000  C
  C26      1.0000 0.84860  0.54420  0.06300  Biso   1.000  C
  C27      1.0000 0.54420  0.06300  0.54420  Biso   1.000  C
  C28      1.0000 0.54420  0.84860  0.54420  Biso   1.000  C
  C29      1.0000 0.84860  0.54420  0.54420  Biso   1.000  C
  C30      1.0000 0.06300  0.54420  0.54420  Biso   1.000  C
  C31      1.0000 0.54420  0.06300  0.84860  Biso   1.000  C
  C32      1.0000 0.54420  0.84860  0.06300  Biso   1.000  C
  C33      1.0000 0.47350  0.47350  0.96390  Biso   1.000  C
  C34      1.0000 0.47350  0.47350  0.08910  Biso   1.000  C
  C35      1.0000 0.96390  0.08910  0.47350  Biso   1.000  C
  C36      1.0000 0.08910  0.96390  0.47350  Biso   1.000  C
  C37      1.0000 0.47350  0.96390  0.08910  Biso   1.000  C
  C38      1.0000 0.47350  0.08910  0.96390  Biso   1.000  C
  C39      1.0000 0.96390  0.47350  0.47350  Biso   1.000  C
  C40      1.0000 0.08910  0.47350  0.47350  Biso   1.000  C
  C41      1.0000 0.47350  0.08910  0.47350  Biso   1.000  C
  C42      1.0000 0.47350  0.96390  0.47350  Biso   1.000  C
  C43      1.0000 0.96390  0.47350  0.08910  Biso   1.000  C
  C44      1.0000 0.08910  0.47350  0.96390  Biso   1.000  C
  C45      1.0000 0.52650  0.52650  0.03610  Biso   1.000  C
  C46      1.0000 0.52650  0.52650  0.91090  Biso   1.000  C
  C47      1.0000 0.91090  0.03610  0.52650  Biso   1.000  C
  C48      1.0000 0.03610  0.91090  0.52650  Biso   1.000  C
  C49      1.0000 0.03610  0.52650  0.91090  Biso   1.000  C
  C50      1.0000 0.91090  0.52650  0.03610  Biso   1.000  C
  C51      1.0000 0.52650  0.03610  0.52650  Biso   1.000  C
  C52      1.0000 0.52650  0.91090  0.52650  Biso   1.000  C
  C53      1.0000 0.91090  0.52650  0.52650  Biso   1.000  C
  C54      1.0000 0.03610  0.52650  0.52650  Biso   1.000  C
  C55      1.0000 0.52650  0.03610  0.91090  Biso   1.000  C
  C56      1.0000 0.52650  0.91090  0.03610  Biso   1.000  C
  C57      1.0000 0.38850  0.38850  0.11150  Biso   1.000  C
  C58      1.0000 0.44660  0.44660  0.05340  Biso   1.000  C
  C59      1.0000 0.11150  0.11150  0.38850  Biso   1.000  C
  C60      1.0000 0.05340  0.05340  0.44660  Biso   1.000  C
  C61      1.0000 0.38850  0.11150  0.11150  Biso   1.000  C
  C62      1.0000 0.44660  0.05340  0.05340  Biso   1.000  C
  C63      1.0000 0.11150  0.38850  0.38850  Biso   1.000  C
  C64      1.0000 0.05340  0.44660  0.44660  Biso   1.000  C
  C65      1.0000 0.38850  0.11150  0.38850  Biso   1.000  C
  C66      1.0000 0.44660  0.05340  0.44660  Biso   1.000  C
  C67      1.0000 0.11150  0.38850  0.11150  Biso   1.000  C
  C68      1.0000 0.05340  0.44660  0.05340  Biso   1.000  C
  C69      1.0000 0.61150  0.61150  0.88850  Biso   1.000  C
  C70      1.0000 0.55340  0.55340  0.94660  Biso   1.000  C
  C71      1.0000 0.88850  0.88850  0.61150  Biso   1.000  C
  C72      1.0000 0.94660  0.94660  0.55340  Biso   1.000  C
  C73      1.0000 0.88850  0.61150  0.88850  Biso   1.000  C
  C74      1.0000 0.94660  0.55340  0.94660  Biso   1.000  C
  C75      1.0000 0.61150  0.88850  0.61150  Biso   1.000  C
  C76      1.0000 0.55340  0.94660  0.55340  Biso   1.000  C
  C77      1.0000 0.88850  0.61150  0.61150  Biso   1.000  C
  C78      1.0000 0.94660  0.55340  0.55340  Biso   1.000  C
  C79      1.0000 0.61150  0.88850  0.88850  Biso   1.000  C
  C80      1.0000 0.55340  0.94660  0.94660  Biso   1.000  C
  C81      1.0000 0.25000  0.25000  0.25000  Biso   1.000  C
  C82      1.0000 0.75000  0.75000  0.75000  Biso   1.000  C
  C83      1.0000 0.36609  0.36609  0.07351  Biso   1.000  C
  C84      1.0000 0.36609  0.36609  0.19431  Biso   1.000  C
  C85      1.0000 0.07351  0.19431  0.36609  Biso   1.000  C
  C86      1.0000 0.19431  0.07351  0.36609  Biso   1.000  C
  C87      1.0000 0.36609  0.07351  0.19431  Biso   1.000  C
  C88      1.0000 0.36609  0.19431  0.07351  Biso   1.000  C
  C89      1.0000 0.07351  0.36609  0.36609  Biso   1.000  C
  C90      1.0000 0.19431  0.36609  0.36609  Biso   1.000  C
  C91      1.0000 0.36609  0.19431  0.36609  Biso   1.000  C
  C92      1.0000 0.36609  0.07351  0.36609  Biso   1.000  C
  C93      1.0000 0.07351  0.36609  0.19431  Biso   1.000  C
  C94      1.0000 0.19431  0.36609  0.07351  Biso   1.000  C
  C95      1.0000 0.63391  0.63391  0.92649  Biso   1.000  C
  C96      1.0000 0.63391  0.63391  0.80569  Biso   1.000  C
  C97      1.0000 0.80569  0.92649  0.63391  Biso   1.000  C
  C98      1.0000 0.92649  0.80569  0.63391  Biso   1.000  C
  C99      1.0000 0.92649  0.63391  0.80569  Biso   1.000  C
  C100     1.0000 0.80569  0.63391  0.92649  Biso   1.000  C
  C101     1.0000 0.63391  0.92649  0.63391  Biso   1.000  C
  C102     1.0000 0.63391  0.80569  0.63391  Biso   1.000  C
  C103     1.0000 0.80569  0.63391  0.63391  Biso   1.000  C
  C104     1.0000 0.92649  0.63391  0.63391  Biso   1.000  C
  C105     1.0000 0.63391  0.92649  0.80569  Biso   1.000  C
  C106     1.0000 0.63391  0.80569  0.92649  Biso   1.000  C
  O1       1.0000 0.89643  0.75638  0.43367  Biso   1.000  O
  O2       1.0000 0.07155  0.75638  0.25855  Biso   1.000  O
  O3       1.0000 0.89643  0.75638  0.25855  Biso   1.000  O
  O4       1.0000 0.89643  0.93150  0.25855  Biso   1.000  O
  O5       1.0000 0.49482  0.34034  0.66739  Biso   1.000  O
  O6       1.0000 0.31969  0.34034  0.84251  Biso   1.000  O
  O7       1.0000 0.49482  0.16521  0.84251  Biso   1.000  O
  O8       1.0000 0.49482  0.34034  0.84251  Biso   1.000  O
  O9       1.0000 0.04331  0.59368  0.61219  Biso   1.000  O
  O10      1.0000 0.25728  0.59368  0.39822  Biso   1.000  O
  O11      1.0000 0.74095  0.89605  0.09585  Biso   1.000  O
  O12      1.0000 0.74095  0.11002  0.09585  Biso   1.000  O
  O13      1.0000 0.74095  0.11002  0.39822  Biso   1.000  O
  O14      1.0000 0.74095  0.89605  0.61219  Biso   1.000  O
  O15      1.0000 0.04331  0.59368  0.09585  Biso   1.000  O
  O16      1.0000 0.25728  0.59368  0.09585  Biso   1.000  O
  O17      1.0000 0.25728  0.89605  0.09585  Biso   1.000  O
  O18      1.0000 0.04331  0.11002  0.09585  Biso   1.000  O
  O19      1.0000 0.74095  0.59368  0.39822  Biso   1.000  O
  O20      1.0000 0.74095  0.59368  0.61219  Biso   1.000  O
  O21      1.0000 0.34793  0.50303  0.48887  Biso   1.000  O
  O22      1.0000 0.13396  0.50303  0.70284  Biso   1.000  O
  O23      1.0000 0.65030  0.98670  0.00521  Biso   1.000  O
  O24      1.0000 0.65030  0.20067  0.00521  Biso   1.000  O
  O25      1.0000 0.65030  0.50303  0.70284  Biso   1.000  O
  O26      1.0000 0.65030  0.50303  0.48887  Biso   1.000  O
  O27      1.0000 0.34793  0.98670  0.00521  Biso   1.000  O
  O28      1.0000 0.13396  0.20067  0.00521  Biso   1.000  O
  O29      1.0000 0.13396  0.50303  0.00521  Biso   1.000  O
  O30      1.0000 0.34793  0.50303  0.00521  Biso   1.000  O
  O31      1.0000 0.65030  0.98670  0.70284  Biso   1.000  O
  O32      1.0000 0.65030  0.20067  0.48887  Biso   1.000  O
  O33      1.0000 0.10713  0.57533  0.58508  Biso   1.000  O
  O34      1.0000 0.23017  0.57533  0.46204  Biso   1.000  O
  O35      1.0000 0.72260  0.95986  0.07750  Biso   1.000  O
  O36      1.0000 0.72260  0.08290  0.07750  Biso   1.000  O
  O37      1.0000 0.72260  0.08290  0.46204  Biso   1.000  O
  O38      1.0000 0.72260  0.95986  0.58508  Biso   1.000  O
  O39      1.0000 0.10713  0.57533  0.07750  Biso   1.000  O
  O40      1.0000 0.23017  0.57533  0.07750  Biso   1.000  O
  O41      1.0000 0.23017  0.95986  0.07750  Biso   1.000  O
  O42      1.0000 0.10713  0.08290  0.07750  Biso   1.000  O
  O43      1.0000 0.72260  0.57533  0.46204  Biso   1.000  O
  O44      1.0000 0.72260  0.57533  0.58508  Biso   1.000  O
  O45      1.0000 0.28412  0.52138  0.51598  Biso   1.000  O
  O46      1.0000 0.16108  0.52138  0.63902  Biso   1.000  O
  O47      1.0000 0.66865  0.01381  0.02356  Biso   1.000  O
  O48      1.0000 0.66865  0.13685  0.02356  Biso   1.000  O
  O49      1.0000 0.66865  0.52138  0.63902  Biso   1.000  O
  O50      1.0000 0.66865  0.52138  0.51598  Biso   1.000  O
  O51      1.0000 0.28412  0.01381  0.02356  Biso   1.000  O
  O52      1.0000 0.16108  0.13685  0.02356  Biso   1.000  O
  O53      1.0000 0.16108  0.52138  0.02356  Biso   1.000  O
  O54      1.0000 0.28412  0.52138  0.02356  Biso   1.000  O
  O55      1.0000 0.66865  0.01381  0.63902  Biso   1.000  O
  O56      1.0000 0.66865  0.13685  0.51598  Biso   1.000  O
  O57      1.0000 0.07961  0.66076  0.44173  Biso   1.000  O
  O58      1.0000 0.13802  0.60235  0.50014  Biso   1.000  O
  O59      1.0000 0.80081  0.93956  0.16294  Biso   1.000  O
  O60      1.0000 0.74241  0.99797  0.10453  Biso   1.000  O
  O61      1.0000 0.80082  0.93956  0.44173  Biso   1.000  O
  O62      1.0000 0.74241  0.99797  0.50014  Biso   1.000  O
  O63      1.0000 0.07961  0.66076  0.16294  Biso   1.000  O
  O64      1.0000 0.13802  0.60235  0.10453  Biso   1.000  O
  O65      1.0000 0.07961  0.93956  0.16294  Biso   1.000  O
  O66      1.0000 0.13802  0.99797  0.10453  Biso   1.000  O
  O67      1.0000 0.80081  0.66076  0.44173  Biso   1.000  O
  O68      1.0000 0.74241  0.60235  0.50014  Biso   1.000  O
  O69      1.0000 0.31164  0.43595  0.65933  Biso   1.000  O
  O70      1.0000 0.25323  0.49436  0.60092  Biso   1.000  O
  O71      1.0000 0.59043  0.15715  0.93812  Biso   1.000  O
  O72      1.0000 0.64884  0.09875  0.99653  Biso   1.000  O
  O73      1.0000 0.59043  0.43595  0.65933  Biso   1.000  O
  O74      1.0000 0.64884  0.49436  0.60092  Biso   1.000  O
  O75      1.0000 0.31164  0.15715  0.93812  Biso   1.000  O
  O76      1.0000 0.25323  0.09875  0.99653  Biso   1.000  O
  O77      1.0000 0.31164  0.43595  0.93812  Biso   1.000  O
  O78      1.0000 0.25323  0.49436  0.99653  Biso   1.000  O
  O79      1.0000 0.59043  0.15715  0.65933  Biso   1.000  O
  O80      1.0000 0.64884  0.09875  0.60092  Biso   1.000  O
  O81      1.0000 0.94021  0.80016  0.30233  Biso   1.000  O
  O82      1.0000 0.45103  0.29655  0.79873  Biso   1.000  O
  O83      1.0000 0.99583  0.68320  0.48063  Biso   1.000  O
  O84      1.0000 0.11851  0.68320  0.35795  Biso   1.000  O
  O85      1.0000 0.82326  0.85578  0.18538  Biso   1.000  O
  O86      1.0000 0.82326  0.97846  0.18538  Biso   1.000  O
  O87      1.0000 0.82326  0.97846  0.35795  Biso   1.000  O
  O88      1.0000 0.82326  0.85578  0.48063  Biso   1.000  O
  O89      1.0000 0.99583  0.68320  0.18538  Biso   1.000  O
  O90      1.0000 0.11851  0.68320  0.18538  Biso   1.000  O
  O91      1.0000 0.11851  0.85578  0.18538  Biso   1.000  O
  O92      1.0000 0.99583  0.97846  0.18538  Biso   1.000  O
  O93      1.0000 0.82326  0.68320  0.35795  Biso   1.000  O
  O94      1.0000 0.82326  0.68320  0.48063  Biso   1.000  O
  O95      1.0000 0.39542  0.41351  0.62043  Biso   1.000  O
  O96      1.0000 0.27274  0.41351  0.74311  Biso   1.000  O
  O97      1.0000 0.56799  0.11826  0.91568  Biso   1.000  O
  O98      1.0000 0.56799  0.24093  0.91568  Biso   1.000  O
  O99      1.0000 0.56799  0.41351  0.74311  Biso   1.000  O
  O100     1.0000 0.56799  0.41351  0.62043  Biso   1.000  O
  O101     1.0000 0.39542  0.11826  0.91568  Biso   1.000  O
  O102     1.0000 0.27274  0.24093  0.91568  Biso   1.000  O
  O103     1.0000 0.27274  0.41351  0.91568  Biso   1.000  O
  O104     1.0000 0.39542  0.41351  0.91568  Biso   1.000  O
  O105     1.0000 0.56799  0.11826  0.74311  Biso   1.000  O
  O106     1.0000 0.56799  0.24093  0.62043  Biso   1.000  O
