data_image0
_cell_length_a       18.2507
_cell_length_b       18.2507
_cell_length_c       18.2507
_cell_angle_alpha    60
_cell_angle_beta     60
_cell_angle_gamma    60

_symmetry_space_group_name_H-M    "P 1"
_symmetry_int_tables_number       1

loop_
  _symmetry_equiv_pos_as_xyz
  'x, y, z'

loop_
  _atom_site_label
  _atom_site_occupancy
  _atom_site_fract_x
  _atom_site_fract_y
  _atom_site_fract_z
  _atom_site_thermal_displace_type
  _atom_site_B_iso_or_equiv
  _atom_site_type_symbol
  C1       1.0000 0.29354  0.29353  0.11940  Biso   1.000  C
  C2       1.0000 0.29354  0.29353  0.29353  Biso   1.000  C
  C3       1.0000 0.11941  0.29353  0.29353  Biso   1.000  C
  C4       1.0000 0.29354  0.11940  0.29353  Biso   1.000  C
  C5       1.0000 0.70646  0.70647  0.88060  Biso   1.000  C
  C6       1.0000 0.70646  0.70647  0.70647  Biso   1.000  C
  C7       1.0000 0.70646  0.88060  0.70647  Biso   1.000  C
  C8       1.0000 0.88059  0.70647  0.70647  Biso   1.000  C
  C9       1.0000 0.45580  0.45580  0.93620  Biso   1.000  C
  C10      1.0000 0.45580  0.45580  0.15220  Biso   1.000  C
  C11      1.0000 0.93620  0.15220  0.45580  Biso   1.000  C
  C12      1.0000 0.15220  0.93620  0.45580  Biso   1.000  C
  C13      1.0000 0.45580  0.93620  0.15220  Biso   1.000  C
  C14      1.0000 0.45580  0.15220  0.93620  Biso   1.000  C
  C15      1.0000 0.93620  0.45580  0.45580  Biso   1.000  C
  C16      1.0000 0.15220  0.45580  0.45580  Biso   1.000  C
  C17      1.0000 0.45580  0.15220  0.45580  Biso   1.000  C
  C18      1.0000 0.45580  0.93620  0.45580  Biso   1.000  C
  C19      1.0000 0.93620  0.45580  0.15220  Biso   1.000  C
  C20      1.0000 0.15220  0.45580  0.93620  Biso   1.000  C
  C21      1.0000 0.54420  0.54420  0.06380  Biso   1.000  C
  C22      1.0000 0.54420  0.54420  0.84780  Biso   1.000  C
  C23      1.0000 0.84780  0.06380  0.54420  Biso   1.000  C
  C24      1.0000 0.06380  0.84780  0.54420  Biso   1.000  C
  C25      1.0000 0.06380  0.54420  0.84780  Biso   1.000  C
  C26      1.0000 0.84780  0.54420  0.06380  Biso   1.000  C
  C27      1.0000 0.54420  0.06380  0.54420  Biso   1.000  C
  C28      1.0000 0.54420  0.84780  0.54420  Biso   1.000  C
  C29      1.0000 0.84780  0.54420  0.54420  Biso   1.000  C
  C30      1.0000 0.06380  0.54420  0.54420  Biso   1.000  C
  C31      1.0000 0.54420  0.06380  0.84780  Biso   1.000  C
  C32      1.0000 0.54420  0.84780  0.06380  Biso   1.000  C
  C33      1.0000 0.47349  0.47349  0.96297  Biso   1.000  C
  C34      1.0000 0.47349  0.47349  0.09005  Biso   1.000  C
  C35      1.0000 0.96297  0.09005  0.47349  Biso   1.000  C
  C36      1.0000 0.09005  0.96297  0.47349  Biso   1.000  C
  C37      1.0000 0.47349  0.96297  0.09005  Biso   1.000  C
  C38      1.0000 0.47349  0.09005  0.96297  Biso   1.000  C
  C39      1.0000 0.96297  0.47349  0.47349  Biso   1.000  C
  C40      1.0000 0.09005  0.47349  0.47349  Biso   1.000  C
  C41      1.0000 0.47349  0.09005  0.47349  Biso   1.000  C
  C42      1.0000 0.47349  0.96297  0.47349  Biso   1.000  C
  C43      1.0000 0.96297  0.47349  0.09005  Biso   1.000  C
  C44      1.0000 0.09005  0.47349  0.96297  Biso   1.000  C
  C45      1.0000 0.52651  0.52651  0.03703  Biso   1.000  C
  C46      1.0000 0.52651  0.52651  0.90995  Biso   1.000  C
  C47      1.0000 0.90995  0.03703  0.52651  Biso   1.000  C
  C48      1.0000 0.03703  0.90995  0.52651  Biso   1.000  C
  C49      1.0000 0.03703  0.52651  0.90995  Biso   1.000  C
  C50      1.0000 0.90995  0.52651  0.03703  Biso   1.000  C
  C51      1.0000 0.52651  0.03703  0.52651  Biso   1.000  C
  C52      1.0000 0.52651  0.90995  0.52651  Biso   1.000  C
  C53      1.0000 0.90995  0.52651  0.52651  Biso   1.000  C
  C54      1.0000 0.03703  0.52651  0.52651  Biso   1.000  C
  C55      1.0000 0.52651  0.03703  0.90995  Biso   1.000  C
  C56      1.0000 0.52651  0.90995  0.03703  Biso   1.000  C
  C57      1.0000 0.38859  0.38859  0.11141  Biso   1.000  C
  C58      1.0000 0.44630  0.44630  0.05370  Biso   1.000  C
  C59      1.0000 0.11141  0.11141  0.38859  Biso   1.000  C
  C60      1.0000 0.05370  0.05370  0.44630  Biso   1.000  C
  C61      1.0000 0.38859  0.11141  0.11141  Biso   1.000  C
  C62      1.0000 0.44630  0.05370  0.05370  Biso   1.000  C
  C63      1.0000 0.11141  0.38859  0.38859  Biso   1.000  C
  C64      1.0000 0.05370  0.44630  0.44630  Biso   1.000  C
  C65      1.0000 0.38859  0.11141  0.38859  Biso   1.000  C
  C66      1.0000 0.44630  0.05370  0.44630  Biso   1.000  C
  C67      1.0000 0.11141  0.38859  0.11141  Biso   1.000  C
  C68      1.0000 0.05370  0.44630  0.05370  Biso   1.000  C
  C69      1.0000 0.61141  0.61141  0.88859  Biso   1.000  C
  C70      1.0000 0.55370  0.55370  0.94630  Biso   1.000  C
  C71      1.0000 0.88859  0.88859  0.61141  Biso   1.000  C
  C72      1.0000 0.94630  0.94630  0.55370  Biso   1.000  C
  C73      1.0000 0.88859  0.61141  0.88859  Biso   1.000  C
  C74      1.0000 0.94630  0.55370  0.94630  Biso   1.000  C
  C75      1.0000 0.61141  0.88859  0.61141  Biso   1.000  C
  C76      1.0000 0.55370  0.94630  0.55370  Biso   1.000  C
  C77      1.0000 0.88859  0.61141  0.61141  Biso   1.000  C
  C78      1.0000 0.94630  0.55370  0.55370  Biso   1.000  C
  C79      1.0000 0.61141  0.88859  0.88859  Biso   1.000  C
  C80      1.0000 0.55370  0.94630  0.94630  Biso   1.000  C
  C81      1.0000 0.25000  0.25000  0.25000  Biso   1.000  C
  C82      1.0000 0.75000  0.75000  0.75000  Biso   1.000  C
  C83      1.0000 0.36605  0.36605  0.07321  Biso   1.000  C
  C84      1.0000 0.36605  0.36605  0.19469  Biso   1.000  C
  C85      1.0000 0.07321  0.19469  0.36605  Biso   1.000  C
  C86      1.0000 0.19469  0.07321  0.36605  Biso   1.000  C
  C87      1.0000 0.36605  0.07321  0.19469  Biso   1.000  C
  C88      1.0000 0.36605  0.19469  0.07321  Biso   1.000  C
  C89      1.0000 0.07321  0.36605  0.36605  Biso   1.000  C
  C90      1.0000 0.19469  0.36605  0.36605  Biso   1.000  C
  C91      1.0000 0.36605  0.19469  0.36605  Biso   1.000  C
  C92      1.0000 0.36605  0.07321  0.36605  Biso   1.000  C
  C93      1.0000 0.07321  0.36605  0.19469  Biso   1.000  C
  C94      1.0000 0.19469  0.36605  0.07321  Biso   1.000  C
  C95      1.0000 0.63395  0.63395  0.92679  Biso   1.000  C
  C96      1.0000 0.63395  0.63395  0.80531  Biso   1.000  C
  C97      1.0000 0.80531  0.92679  0.63395  Biso   1.000  C
  C98      1.0000 0.92679  0.80531  0.63395  Biso   1.000  C
  C99      1.0000 0.92679  0.63395  0.80531  Biso   1.000  C
  C100     1.0000 0.80531  0.63395  0.92679  Biso   1.000  C
  C101     1.0000 0.63395  0.92679  0.63395  Biso   1.000  C
  C102     1.0000 0.63395  0.80531  0.63395  Biso   1.000  C
  C103     1.0000 0.80531  0.63395  0.63395  Biso   1.000  C
  C104     1.0000 0.92679  0.63395  0.63395  Biso   1.000  C
  C105     1.0000 0.63395  0.92679  0.80531  Biso   1.000  C
  C106     1.0000 0.63395  0.80531  0.92679  Biso   1.000  C
  O1       1.0000 0.00550  0.83876  0.13385  Biso   1.000  O
  O2       1.0000 0.83291  0.01135  0.13385  Biso   1.000  O
  O3       1.0000 0.00550  0.01135  0.13385  Biso   1.000  O
  O4       1.0000 0.00550  0.01135  0.96126  Biso   1.000  O
  O5       1.0000 0.59463  0.42232  0.54482  Biso   1.000  O
  O6       1.0000 0.41647  0.60048  0.54482  Biso   1.000  O
  O7       1.0000 0.41647  0.42232  0.72298  Biso   1.000  O
  O8       1.0000 0.41647  0.42232  0.54482  Biso   1.000  O
  O9       1.0000 0.77815  0.56717  0.38332  Biso   1.000  O
  O10      1.0000 0.56132  0.78400  0.38332  Biso   1.000  O
  O11      1.0000 0.25497  0.26082  0.90650  Biso   1.000  O
  O12      1.0000 0.25497  0.26082  0.68967  Biso   1.000  O
  O13      1.0000 0.77815  0.26082  0.38332  Biso   1.000  O
  O14      1.0000 0.56132  0.26082  0.38332  Biso   1.000  O
  O15      1.0000 0.25497  0.78400  0.68967  Biso   1.000  O
  O16      1.0000 0.25497  0.56717  0.90650  Biso   1.000  O
  O17      1.0000 0.77815  0.26082  0.68967  Biso   1.000  O
  O18      1.0000 0.56132  0.26082  0.90650  Biso   1.000  O
  O19      1.0000 0.25497  0.56717  0.38332  Biso   1.000  O
  O20      1.0000 0.25497  0.78400  0.38332  Biso   1.000  O
  O21      1.0000 0.79376  0.68225  0.31798  Biso   1.000  O
  O22      1.0000 0.75159  0.62894  0.36572  Biso   1.000  O
  O23      1.0000 0.67640  0.79961  0.31798  Biso   1.000  O
  O24      1.0000 0.62308  0.75744  0.36572  Biso   1.000  O
  O25      1.0000 0.18962  0.19548  0.92212  Biso   1.000  O
  O26      1.0000 0.23736  0.24322  0.87994  Biso   1.000  O
  O27      1.0000 0.18962  0.19548  0.80475  Biso   1.000  O
  O28      1.0000 0.23736  0.24322  0.75144  Biso   1.000  O
  O29      1.0000 0.79376  0.19548  0.31798  Biso   1.000  O
  O30      1.0000 0.75159  0.24322  0.36572  Biso   1.000  O
  O31      1.0000 0.67640  0.19548  0.31798  Biso   1.000  O
  O32      1.0000 0.62308  0.24322  0.36572  Biso   1.000  O
  O33      1.0000 0.18962  0.79961  0.80475  Biso   1.000  O
  O34      1.0000 0.23736  0.75744  0.75144  Biso   1.000  O
  O35      1.0000 0.18962  0.68225  0.92212  Biso   1.000  O
  O36      1.0000 0.23736  0.62894  0.87994  Biso   1.000  O
  O37      1.0000 0.79376  0.19548  0.80475  Biso   1.000  O
  O38      1.0000 0.75159  0.24322  0.75144  Biso   1.000  O
  O39      1.0000 0.67640  0.19548  0.92212  Biso   1.000  O
  O40      1.0000 0.62308  0.24322  0.87994  Biso   1.000  O
  O41      1.0000 0.18962  0.68225  0.31798  Biso   1.000  O
  O42      1.0000 0.23736  0.62894  0.36572  Biso   1.000  O
  O43      1.0000 0.18962  0.79961  0.31798  Biso   1.000  O
  O44      1.0000 0.23736  0.75744  0.36572  Biso   1.000  O
  O45      1.0000 0.76830  0.77415  0.28476  Biso   1.000  O
  O46      1.0000 0.66466  0.67051  0.38840  Biso   1.000  O
  O47      1.0000 0.60359  0.60944  0.44947  Biso   1.000  O
  O48      1.0000 0.82479  0.83065  0.22826  Biso   1.000  O
  O49      1.0000 0.15640  0.16226  0.89665  Biso   1.000  O
  O50      1.0000 0.26004  0.26590  0.79301  Biso   1.000  O
  O51      1.0000 0.32111  0.32697  0.73194  Biso   1.000  O
  O52      1.0000 0.09991  0.10576  0.95315  Biso   1.000  O
  O53      1.0000 0.76830  0.16226  0.28476  Biso   1.000  O
  O54      1.0000 0.66466  0.26590  0.38840  Biso   1.000  O
  O55      1.0000 0.60359  0.32697  0.44947  Biso   1.000  O
  O56      1.0000 0.82479  0.10576  0.22826  Biso   1.000  O
  O57      1.0000 0.15640  0.77415  0.89665  Biso   1.000  O
  O58      1.0000 0.26004  0.67051  0.79301  Biso   1.000  O
  O59      1.0000 0.32111  0.60944  0.73194  Biso   1.000  O
  O60      1.0000 0.09991  0.83065  0.95315  Biso   1.000  O
  O61      1.0000 0.76830  0.16226  0.89665  Biso   1.000  O
  O62      1.0000 0.66466  0.26590  0.79301  Biso   1.000  O
  O63      1.0000 0.60359  0.32697  0.73194  Biso   1.000  O
  O64      1.0000 0.82479  0.10576  0.95315  Biso   1.000  O
  O65      1.0000 0.15640  0.77415  0.28476  Biso   1.000  O
  O66      1.0000 0.26004  0.67051  0.38840  Biso   1.000  O
  O67      1.0000 0.32111  0.60944  0.44947  Biso   1.000  O
  O68      1.0000 0.09991  0.83065  0.22826  Biso   1.000  O
  O69      1.0000 0.64258  0.52231  0.47354  Biso   1.000  O
  O70      1.0000 0.90416  0.79385  0.20698  Biso   1.000  O
  O71      1.0000 0.51646  0.64843  0.47354  Biso   1.000  O
  O72      1.0000 0.78799  0.91002  0.20698  Biso   1.000  O
  O73      1.0000 0.34518  0.35104  0.77093  Biso   1.000  O
  O74      1.0000 0.07862  0.08448  0.03252  Biso   1.000  O
  O75      1.0000 0.34518  0.35104  0.64481  Biso   1.000  O
  O76      1.0000 0.07862  0.08448  0.91635  Biso   1.000  O
  O77      1.0000 0.64258  0.35104  0.47354  Biso   1.000  O
  O78      1.0000 0.90416  0.08448  0.20698  Biso   1.000  O
  O79      1.0000 0.51646  0.35104  0.47354  Biso   1.000  O
  O80      1.0000 0.78799  0.08448  0.20698  Biso   1.000  O
  O81      1.0000 0.34518  0.64843  0.64481  Biso   1.000  O
  O82      1.0000 0.07862  0.91002  0.91635  Biso   1.000  O
  O83      1.0000 0.34518  0.52231  0.77093  Biso   1.000  O
  O84      1.0000 0.07862  0.79385  0.03252  Biso   1.000  O
  O85      1.0000 0.64258  0.35104  0.64481  Biso   1.000  O
  O86      1.0000 0.90416  0.08448  0.91635  Biso   1.000  O
  O87      1.0000 0.51646  0.35104  0.77093  Biso   1.000  O
  O88      1.0000 0.78799  0.08448  0.03252  Biso   1.000  O
  O89      1.0000 0.34518  0.52231  0.47354  Biso   1.000  O
  O90      1.0000 0.07862  0.79385  0.20698  Biso   1.000  O
  O91      1.0000 0.34518  0.64843  0.47354  Biso   1.000  O
  O92      1.0000 0.07862  0.91002  0.20698  Biso   1.000  O
  O93      1.0000 0.46504  0.47089  0.59339  Biso   1.000  O
  O94      1.0000 0.96235  0.96820  0.09071  Biso   1.000  O
