data_image0
_cell_length_a       18.2344
_cell_length_b       18.2344
_cell_length_c       18.2344
_cell_angle_alpha    60
_cell_angle_beta     60
_cell_angle_gamma    60

_symmetry_space_group_name_H-M    "P 1"
_symmetry_int_tables_number       1

loop_
  _symmetry_equiv_pos_as_xyz
  'x, y, z'

loop_
  _atom_site_label
  _atom_site_occupancy
  _atom_site_fract_x
  _atom_site_fract_y
  _atom_site_fract_z
  _atom_site_thermal_displace_type
  _atom_site_B_iso_or_equiv
  _atom_site_type_symbol
  C1       1.0000 0.29357  0.29359  0.11925  Biso   1.000  C
  C2       1.0000 0.29358  0.29358  0.29359  Biso   1.000  C
  C3       1.0000 0.11924  0.29359  0.29358  Biso   1.000  C
  C4       1.0000 0.29358  0.11925  0.29359  Biso   1.000  C
  C5       1.0000 0.70642  0.70642  0.88075  Biso   1.000  C
  C6       1.0000 0.70641  0.70642  0.70642  Biso   1.000  C
  C7       1.0000 0.70642  0.88075  0.70642  Biso   1.000  C
  C8       1.0000 0.88075  0.70642  0.70641  Biso   1.000  C
  C9       1.0000 0.45590  0.45590  0.93650  Biso   1.000  C
  C10      1.0000 0.45590  0.45590  0.15170  Biso   1.000  C
  C11      1.0000 0.93650  0.15170  0.45590  Biso   1.000  C
  C12      1.0000 0.15170  0.93650  0.45590  Biso   1.000  C
  C13      1.0000 0.45590  0.93650  0.15170  Biso   1.000  C
  C14      1.0000 0.45590  0.15170  0.93650  Biso   1.000  C
  C15      1.0000 0.93650  0.45590  0.45590  Biso   1.000  C
  C16      1.0000 0.15170  0.45590  0.45590  Biso   1.000  C
  C17      1.0000 0.45590  0.15170  0.45590  Biso   1.000  C
  C18      1.0000 0.45590  0.93650  0.45590  Biso   1.000  C
  C19      1.0000 0.93650  0.45590  0.15170  Biso   1.000  C
  C20      1.0000 0.15170  0.45590  0.93650  Biso   1.000  C
  C21      1.0000 0.54410  0.54410  0.06350  Biso   1.000  C
  C22      1.0000 0.54410  0.54410  0.84830  Biso   1.000  C
  C23      1.0000 0.84830  0.06350  0.54410  Biso   1.000  C
  C24      1.0000 0.06350  0.84830  0.54410  Biso   1.000  C
  C25      1.0000 0.06350  0.54410  0.84830  Biso   1.000  C
  C26      1.0000 0.84830  0.54410  0.06350  Biso   1.000  C
  C27      1.0000 0.54410  0.06350  0.54410  Biso   1.000  C
  C28      1.0000 0.54410  0.84830  0.54410  Biso   1.000  C
  C29      1.0000 0.84830  0.54410  0.54410  Biso   1.000  C
  C30      1.0000 0.06350  0.54410  0.54410  Biso   1.000  C
  C31      1.0000 0.54410  0.06350  0.84830  Biso   1.000  C
  C32      1.0000 0.54410  0.84830  0.06350  Biso   1.000  C
  C33      1.0000 0.47360  0.47360  0.96326  Biso   1.000  C
  C34      1.0000 0.47360  0.47360  0.08954  Biso   1.000  C
  C35      1.0000 0.96326  0.08954  0.47360  Biso   1.000  C
  C36      1.0000 0.08954  0.96326  0.47360  Biso   1.000  C
  C37      1.0000 0.47360  0.96326  0.08954  Biso   1.000  C
  C38      1.0000 0.47360  0.08954  0.96326  Biso   1.000  C
  C39      1.0000 0.96326  0.47360  0.47360  Biso   1.000  C
  C40      1.0000 0.08954  0.47360  0.47360  Biso   1.000  C
  C41      1.0000 0.47360  0.08954  0.47360  Biso   1.000  C
  C42      1.0000 0.47360  0.96326  0.47360  Biso   1.000  C
  C43      1.0000 0.96326  0.47360  0.08954  Biso   1.000  C
  C44      1.0000 0.08954  0.47360  0.96326  Biso   1.000  C
  C45      1.0000 0.52640  0.52640  0.03674  Biso   1.000  C
  C46      1.0000 0.52640  0.52640  0.91046  Biso   1.000  C
  C47      1.0000 0.91046  0.03674  0.52640  Biso   1.000  C
  C48      1.0000 0.03674  0.91046  0.52640  Biso   1.000  C
  C49      1.0000 0.03674  0.52640  0.91046  Biso   1.000  C
  C50      1.0000 0.91046  0.52640  0.03674  Biso   1.000  C
  C51      1.0000 0.52640  0.03674  0.52640  Biso   1.000  C
  C52      1.0000 0.52640  0.91046  0.52640  Biso   1.000  C
  C53      1.0000 0.91046  0.52640  0.52640  Biso   1.000  C
  C54      1.0000 0.03674  0.52640  0.52640  Biso   1.000  C
  C55      1.0000 0.52640  0.03674  0.91046  Biso   1.000  C
  C56      1.0000 0.52640  0.91046  0.03674  Biso   1.000  C
  C57      1.0000 0.38860  0.38860  0.11140  Biso   1.000  C
  C58      1.0000 0.44640  0.44640  0.05360  Biso   1.000  C
  C59      1.0000 0.11140  0.11140  0.38860  Biso   1.000  C
  C60      1.0000 0.05360  0.05360  0.44640  Biso   1.000  C
  C61      1.0000 0.38860  0.11140  0.11140  Biso   1.000  C
  C62      1.0000 0.44640  0.05360  0.05360  Biso   1.000  C
  C63      1.0000 0.11140  0.38860  0.38860  Biso   1.000  C
  C64      1.0000 0.05360  0.44640  0.44640  Biso   1.000  C
  C65      1.0000 0.38860  0.11140  0.38860  Biso   1.000  C
  C66      1.0000 0.44640  0.05360  0.44640  Biso   1.000  C
  C67      1.0000 0.11140  0.38860  0.11140  Biso   1.000  C
  C68      1.0000 0.05360  0.44640  0.05360  Biso   1.000  C
  C69      1.0000 0.61140  0.61140  0.88860  Biso   1.000  C
  C70      1.0000 0.55360  0.55360  0.94640  Biso   1.000  C
  C71      1.0000 0.88860  0.88860  0.61140  Biso   1.000  C
  C72      1.0000 0.94640  0.94640  0.55360  Biso   1.000  C
  C73      1.0000 0.88860  0.61140  0.88860  Biso   1.000  C
  C74      1.0000 0.94640  0.55360  0.94640  Biso   1.000  C
  C75      1.0000 0.61140  0.88860  0.61140  Biso   1.000  C
  C76      1.0000 0.55360  0.94640  0.55360  Biso   1.000  C
  C77      1.0000 0.88860  0.61140  0.61140  Biso   1.000  C
  C78      1.0000 0.94640  0.55360  0.55360  Biso   1.000  C
  C79      1.0000 0.61140  0.88860  0.88860  Biso   1.000  C
  C80      1.0000 0.55360  0.94640  0.94640  Biso   1.000  C
  C81      1.0000 0.25000  0.25000  0.25000  Biso   1.000  C
  C82      1.0000 0.75000  0.75000  0.75000  Biso   1.000  C
  C83      1.0000 0.36604  0.36604  0.07340  Biso   1.000  C
  C84      1.0000 0.36604  0.36604  0.19452  Biso   1.000  C
  C85      1.0000 0.07340  0.19452  0.36604  Biso   1.000  C
  C86      1.0000 0.19452  0.07340  0.36604  Biso   1.000  C
  C87      1.0000 0.36604  0.07340  0.19452  Biso   1.000  C
  C88      1.0000 0.36604  0.19452  0.07340  Biso   1.000  C
  C89      1.0000 0.07340  0.36604  0.36604  Biso   1.000  C
  C90      1.0000 0.19452  0.36604  0.36604  Biso   1.000  C
  C91      1.0000 0.36604  0.19452  0.36604  Biso   1.000  C
  C92      1.0000 0.36604  0.07340  0.36604  Biso   1.000  C
  C93      1.0000 0.07340  0.36604  0.19452  Biso   1.000  C
  C94      1.0000 0.19452  0.36604  0.07340  Biso   1.000  C
  C95      1.0000 0.63396  0.63396  0.92660  Biso   1.000  C
  C96      1.0000 0.63396  0.63396  0.80548  Biso   1.000  C
  C97      1.0000 0.80548  0.92660  0.63396  Biso   1.000  C
  C98      1.0000 0.92660  0.80548  0.63396  Biso   1.000  C
  C99      1.0000 0.92660  0.63396  0.80548  Biso   1.000  C
  C100     1.0000 0.80548  0.63396  0.92660  Biso   1.000  C
  C101     1.0000 0.63396  0.92660  0.63396  Biso   1.000  C
  C102     1.0000 0.63396  0.80548  0.63396  Biso   1.000  C
  C103     1.0000 0.80548  0.63396  0.63396  Biso   1.000  C
  C104     1.0000 0.92660  0.63396  0.63396  Biso   1.000  C
  C105     1.0000 0.63396  0.92660  0.80548  Biso   1.000  C
  C106     1.0000 0.63396  0.80548  0.92660  Biso   1.000  C
  O1       1.0000 0.57905  0.42093  0.42090  Biso   1.000  O
  O2       1.0000 0.14320  0.84204  0.01447  Biso   1.000  O
  O3       1.0000 0.14320  0.01468  0.01447  Biso   1.000  O
  O4       1.0000 0.57905  0.59357  0.42090  Biso   1.000  O
  O5       1.0000 0.57901  0.42085  0.59376  Biso   1.000  O
  O6       1.0000 0.75146  0.42111  0.42078  Biso   1.000  O
  O7       1.0000 0.14324  0.01476  0.84162  Biso   1.000  O
  O8       1.0000 0.97079  0.01450  0.01460  Biso   1.000  O
  O9       1.0000 0.40091  0.26513  0.79036  Biso   1.000  O
  O10      1.0000 0.39997  0.26666  0.55651  Biso   1.000  O
  O11      1.0000 0.39709  0.55657  0.26746  Biso   1.000  O
  O12      1.0000 0.32134  0.87763  0.64501  Biso   1.000  O
  O13      1.0000 0.32228  0.64429  0.87886  Biso   1.000  O
  O14      1.0000 0.32516  0.64231  0.16792  Biso   1.000  O
  O15      1.0000 0.32134  0.17048  0.64501  Biso   1.000  O
  O16      1.0000 0.32228  0.16895  0.87886  Biso   1.000  O
  O17      1.0000 0.32516  0.87904  0.16792  Biso   1.000  O
  O18      1.0000 0.40091  0.55798  0.79036  Biso   1.000  O
  O19      1.0000 0.39997  0.79132  0.55651  Biso   1.000  O
  O20      1.0000 0.39709  0.79330  0.26746  Biso   1.000  O
  O21      1.0000 0.49235  0.33327  0.59820  Biso   1.000  O
  O22      1.0000 0.42870  0.26912  0.65713  Biso   1.000  O
  O23      1.0000 0.38534  0.24384  0.76415  Biso   1.000  O
  O24      1.0000 0.38539  0.24528  0.61939  Biso   1.000  O
  O25      1.0000 0.75237  0.33388  0.33398  Biso   1.000  O
  O26      1.0000 0.38379  0.61934  0.24390  Biso   1.000  O
  O27      1.0000 0.22990  0.84496  0.83717  Biso   1.000  O
  O28      1.0000 0.29355  0.77609  0.77824  Biso   1.000  O
  O29      1.0000 0.33691  0.81457  0.67123  Biso   1.000  O
  O30      1.0000 0.33686  0.67120  0.81599  Biso   1.000  O
  O31      1.0000 0.96988  0.84140  0.10139  Biso   1.000  O
  O32      1.0000 0.33846  0.66822  0.19147  Biso   1.000  O
  O33      1.0000 0.22990  0.10234  0.83717  Biso   1.000  O
  O34      1.0000 0.29355  0.16649  0.77824  Biso   1.000  O
  O35      1.0000 0.33691  0.19177  0.67123  Biso   1.000  O
  O36      1.0000 0.33686  0.19033  0.81599  Biso   1.000  O
  O37      1.0000 0.96988  0.10173  0.10139  Biso   1.000  O
  O38      1.0000 0.33846  0.81627  0.19147  Biso   1.000  O
  O39      1.0000 0.49235  0.59065  0.59820  Biso   1.000  O
  O40      1.0000 0.42870  0.65952  0.65713  Biso   1.000  O
  O41      1.0000 0.38534  0.62104  0.76415  Biso   1.000  O
  O42      1.0000 0.38539  0.76441  0.61939  Biso   1.000  O
  O43      1.0000 0.75237  0.59421  0.33398  Biso   1.000  O
  O44      1.0000 0.38379  0.76739  0.24390  Biso   1.000  O
  O45      1.0000 0.75042  0.33297  0.59810  Biso   1.000  O
  O46      1.0000 0.48898  0.59529  0.33487  Biso   1.000  O
  O47      1.0000 0.42848  0.65974  0.26647  Biso   1.000  O
  O48      1.0000 0.97183  0.10264  0.83727  Biso   1.000  O
  O49      1.0000 0.23327  0.84032  0.10051  Biso   1.000  O
  O50      1.0000 0.29377  0.77587  0.16890  Biso   1.000  O
  O51      1.0000 0.50969  0.34943  0.64176  Biso   1.000  O
  O52      1.0000 0.50772  0.34865  0.51601  Biso   1.000  O
  O53      1.0000 0.80125  0.34925  0.35014  Biso   1.000  O
  O54      1.0000 0.67187  0.34905  0.35004  Biso   1.000  O
  O55      1.0000 0.50849  0.51430  0.34847  Biso   1.000  O
  O56      1.0000 0.21256  0.92202  0.79361  Biso   1.000  O
  O57      1.0000 0.21453  0.79352  0.91937  Biso   1.000  O
  O58      1.0000 0.92100  0.92181  0.08523  Biso   1.000  O
  O59      1.0000 0.05038  0.79213  0.08533  Biso   1.000  O
  O60      1.0000 0.21375  0.79243  0.08691  Biso   1.000  O
  O61      1.0000 0.21256  0.08618  0.79361  Biso   1.000  O
  O62      1.0000 0.21453  0.08696  0.91937  Biso   1.000  O
  O63      1.0000 0.92100  0.08636  0.08523  Biso   1.000  O
  O64      1.0000 0.05038  0.08656  0.08533  Biso   1.000  O
  O65      1.0000 0.21375  0.92131  0.08691  Biso   1.000  O
  O66      1.0000 0.50969  0.51359  0.64176  Biso   1.000  O
  O67      1.0000 0.50772  0.64209  0.51601  Biso   1.000  O
  O68      1.0000 0.80125  0.51380  0.35014  Biso   1.000  O
  O69      1.0000 0.67187  0.64348  0.35004  Biso   1.000  O
  O70      1.0000 0.50849  0.64318  0.34847  Biso   1.000  O
  O71      1.0000 0.62073  0.46542  0.46289  Biso   1.000  O
  O72      1.0000 0.67218  0.34953  0.64324  Biso   1.000  O
  O73      1.0000 0.80096  0.34963  0.51423  Biso   1.000  O
  O74      1.0000 0.10152  0.97019  0.97249  Biso   1.000  O
  O75      1.0000 0.05007  0.08608  0.79214  Biso   1.000  O
  O76      1.0000 0.92129  0.08598  0.92114  Biso   1.000  O
