data_image0
_cell_length_a       18.2115
_cell_length_b       18.2115
_cell_length_c       18.2115
_cell_angle_alpha    60
_cell_angle_beta     60
_cell_angle_gamma    60

_symmetry_space_group_name_H-M    "P 1"
_symmetry_int_tables_number       1

loop_
  _symmetry_equiv_pos_as_xyz
  'x, y, z'

loop_
  _atom_site_label
  _atom_site_occupancy
  _atom_site_fract_x
  _atom_site_fract_y
  _atom_site_fract_z
  _atom_site_thermal_displace_type
  _atom_site_B_iso_or_equiv
  _atom_site_type_symbol
  C1       1.0000 0.29361  0.29361  0.11917  Biso   1.000  C
  C2       1.0000 0.29361  0.29361  0.29361  Biso   1.000  C
  C3       1.0000 0.11917  0.29361  0.29361  Biso   1.000  C
  C4       1.0000 0.29361  0.11917  0.29361  Biso   1.000  C
  C5       1.0000 0.70639  0.70639  0.88083  Biso   1.000  C
  C6       1.0000 0.70639  0.70639  0.70639  Biso   1.000  C
  C7       1.0000 0.70639  0.88083  0.70639  Biso   1.000  C
  C8       1.0000 0.88083  0.70639  0.70639  Biso   1.000  C
  C9       1.0000 0.45530  0.45530  0.93770  Biso   1.000  C
  C10      1.0000 0.45530  0.45530  0.15170  Biso   1.000  C
  C11      1.0000 0.93770  0.15170  0.45530  Biso   1.000  C
  C12      1.0000 0.15170  0.93770  0.45530  Biso   1.000  C
  C13      1.0000 0.45530  0.93770  0.15170  Biso   1.000  C
  C14      1.0000 0.45530  0.15170  0.93770  Biso   1.000  C
  C15      1.0000 0.93770  0.45530  0.45530  Biso   1.000  C
  C16      1.0000 0.15170  0.45530  0.45530  Biso   1.000  C
  C17      1.0000 0.45530  0.15170  0.45530  Biso   1.000  C
  C18      1.0000 0.45530  0.93770  0.45530  Biso   1.000  C
  C19      1.0000 0.93770  0.45530  0.15170  Biso   1.000  C
  C20      1.0000 0.15170  0.45530  0.93770  Biso   1.000  C
  C21      1.0000 0.54470  0.54470  0.06230  Biso   1.000  C
  C22      1.0000 0.54470  0.54470  0.84830  Biso   1.000  C
  C23      1.0000 0.84830  0.06230  0.54470  Biso   1.000  C
  C24      1.0000 0.06230  0.84830  0.54470  Biso   1.000  C
  C25      1.0000 0.06230  0.54470  0.84830  Biso   1.000  C
  C26      1.0000 0.84830  0.54470  0.06230  Biso   1.000  C
  C27      1.0000 0.54470  0.06230  0.54470  Biso   1.000  C
  C28      1.0000 0.54470  0.84830  0.54470  Biso   1.000  C
  C29      1.0000 0.84830  0.54470  0.54470  Biso   1.000  C
  C30      1.0000 0.06230  0.54470  0.54470  Biso   1.000  C
  C31      1.0000 0.54470  0.06230  0.84830  Biso   1.000  C
  C32      1.0000 0.54470  0.84830  0.06230  Biso   1.000  C
  C33      1.0000 0.47300  0.47300  0.96450  Biso   1.000  C
  C34      1.0000 0.47300  0.47300  0.08950  Biso   1.000  C
  C35      1.0000 0.96450  0.08950  0.47300  Biso   1.000  C
  C36      1.0000 0.08950  0.96450  0.47300  Biso   1.000  C
  C37      1.0000 0.47300  0.96450  0.08950  Biso   1.000  C
  C38      1.0000 0.47300  0.08950  0.96450  Biso   1.000  C
  C39      1.0000 0.96450  0.47300  0.47300  Biso   1.000  C
  C40      1.0000 0.08950  0.47300  0.47300  Biso   1.000  C
  C41      1.0000 0.47300  0.08950  0.47300  Biso   1.000  C
  C42      1.0000 0.47300  0.96450  0.47300  Biso   1.000  C
  C43      1.0000 0.96450  0.47300  0.08950  Biso   1.000  C
  C44      1.0000 0.08950  0.47300  0.96450  Biso   1.000  C
  C45      1.0000 0.52700  0.52700  0.03550  Biso   1.000  C
  C46      1.0000 0.52700  0.52700  0.91050  Biso   1.000  C
  C47      1.0000 0.91050  0.03550  0.52700  Biso   1.000  C
  C48      1.0000 0.03550  0.91050  0.52700  Biso   1.000  C
  C49      1.0000 0.03550  0.52700  0.91050  Biso   1.000  C
  C50      1.0000 0.91050  0.52700  0.03550  Biso   1.000  C
  C51      1.0000 0.52700  0.03550  0.52700  Biso   1.000  C
  C52      1.0000 0.52700  0.91050  0.52700  Biso   1.000  C
  C53      1.0000 0.91050  0.52700  0.52700  Biso   1.000  C
  C54      1.0000 0.03550  0.52700  0.52700  Biso   1.000  C
  C55      1.0000 0.52700  0.03550  0.91050  Biso   1.000  C
  C56      1.0000 0.52700  0.91050  0.03550  Biso   1.000  C
  C57      1.0000 0.38860  0.38860  0.11140  Biso   1.000  C
  C58      1.0000 0.44600  0.44600  0.05400  Biso   1.000  C
  C59      1.0000 0.11140  0.11140  0.38860  Biso   1.000  C
  C60      1.0000 0.05400  0.05400  0.44600  Biso   1.000  C
  C61      1.0000 0.38860  0.11140  0.11140  Biso   1.000  C
  C62      1.0000 0.44600  0.05400  0.05400  Biso   1.000  C
  C63      1.0000 0.11140  0.38860  0.38860  Biso   1.000  C
  C64      1.0000 0.05400  0.44600  0.44600  Biso   1.000  C
  C65      1.0000 0.38860  0.11140  0.38860  Biso   1.000  C
  C66      1.0000 0.44600  0.05400  0.44600  Biso   1.000  C
  C67      1.0000 0.11140  0.38860  0.11140  Biso   1.000  C
  C68      1.0000 0.05400  0.44600  0.05400  Biso   1.000  C
  C69      1.0000 0.61140  0.61140  0.88860  Biso   1.000  C
  C70      1.0000 0.55400  0.55400  0.94600  Biso   1.000  C
  C71      1.0000 0.88860  0.88860  0.61140  Biso   1.000  C
  C72      1.0000 0.94600  0.94600  0.55400  Biso   1.000  C
  C73      1.0000 0.88860  0.61140  0.88860  Biso   1.000  C
  C74      1.0000 0.94600  0.55400  0.94600  Biso   1.000  C
  C75      1.0000 0.61140  0.88860  0.61140  Biso   1.000  C
  C76      1.0000 0.55400  0.94600  0.55400  Biso   1.000  C
  C77      1.0000 0.88860  0.61140  0.61140  Biso   1.000  C
  C78      1.0000 0.94600  0.55400  0.55400  Biso   1.000  C
  C79      1.0000 0.61140  0.88860  0.88860  Biso   1.000  C
  C80      1.0000 0.55400  0.94600  0.94600  Biso   1.000  C
  C81      1.0000 0.25000  0.25000  0.25000  Biso   1.000  C
  C82      1.0000 0.75000  0.75000  0.75000  Biso   1.000  C
  C83      1.0000 0.36611  0.36611  0.07317  Biso   1.000  C
  C84      1.0000 0.36611  0.36611  0.19461  Biso   1.000  C
  C85      1.0000 0.07317  0.19461  0.36611  Biso   1.000  C
  C86      1.0000 0.19461  0.07317  0.36611  Biso   1.000  C
  C87      1.0000 0.36611  0.07317  0.19461  Biso   1.000  C
  C88      1.0000 0.36611  0.19461  0.07317  Biso   1.000  C
  C89      1.0000 0.07317  0.36611  0.36611  Biso   1.000  C
  C90      1.0000 0.19461  0.36611  0.36611  Biso   1.000  C
  C91      1.0000 0.36611  0.19461  0.36611  Biso   1.000  C
  C92      1.0000 0.36611  0.07317  0.36611  Biso   1.000  C
  C93      1.0000 0.07317  0.36611  0.19461  Biso   1.000  C
  C94      1.0000 0.19461  0.36611  0.07317  Biso   1.000  C
  C95      1.0000 0.63389  0.63389  0.92683  Biso   1.000  C
  C96      1.0000 0.63389  0.63389  0.80539  Biso   1.000  C
  C97      1.0000 0.80539  0.92683  0.63389  Biso   1.000  C
  C98      1.0000 0.92683  0.80539  0.63389  Biso   1.000  C
  C99      1.0000 0.92683  0.63389  0.80539  Biso   1.000  C
  C100     1.0000 0.80539  0.63389  0.92683  Biso   1.000  C
  C101     1.0000 0.63389  0.92683  0.63389  Biso   1.000  C
  C102     1.0000 0.63389  0.80539  0.63389  Biso   1.000  C
  C103     1.0000 0.80539  0.63389  0.63389  Biso   1.000  C
  C104     1.0000 0.92683  0.63389  0.63389  Biso   1.000  C
  C105     1.0000 0.63389  0.92683  0.80539  Biso   1.000  C
  C106     1.0000 0.63389  0.80539  0.92683  Biso   1.000  C
  O1       1.0000 0.89351  0.75822  0.43417  Biso   1.000  O
  O2       1.0000 0.06825  0.75822  0.25944  Biso   1.000  O
  O3       1.0000 0.89351  0.75822  0.25944  Biso   1.000  O
  O4       1.0000 0.89351  0.93296  0.25944  Biso   1.000  O
  O5       1.0000 0.48491  0.34426  0.67073  Biso   1.000  O
  O6       1.0000 0.31017  0.34426  0.84547  Biso   1.000  O
  O7       1.0000 0.48491  0.16952  0.84547  Biso   1.000  O
  O8       1.0000 0.48491  0.34426  0.84547  Biso   1.000  O
  O9       1.0000 0.03854  0.59536  0.61488  Biso   1.000  O
  O10      1.0000 0.25164  0.59536  0.40179  Biso   1.000  O
  O11      1.0000 0.73333  0.90058  0.09657  Biso   1.000  O
  O12      1.0000 0.73333  0.11367  0.09657  Biso   1.000  O
  O13      1.0000 0.73333  0.11367  0.40179  Biso   1.000  O
  O14      1.0000 0.73333  0.90058  0.61488  Biso   1.000  O
  O15      1.0000 0.03854  0.59536  0.09657  Biso   1.000  O
  O16      1.0000 0.25164  0.59536  0.09657  Biso   1.000  O
  O17      1.0000 0.25164  0.90058  0.09657  Biso   1.000  O
  O18      1.0000 0.03854  0.11367  0.09657  Biso   1.000  O
  O19      1.0000 0.73333  0.59536  0.40179  Biso   1.000  O
  O20      1.0000 0.73333  0.59536  0.61488  Biso   1.000  O
  O21      1.0000 0.33988  0.50712  0.49002  Biso   1.000  O
  O22      1.0000 0.12678  0.50712  0.70312  Biso   1.000  O
  O23      1.0000 0.64509  0.98881  0.00833  Biso   1.000  O
  O24      1.0000 0.64509  0.20191  0.00833  Biso   1.000  O
  O25      1.0000 0.64509  0.50712  0.70312  Biso   1.000  O
  O26      1.0000 0.64509  0.50712  0.49002  Biso   1.000  O
  O27      1.0000 0.33988  0.98881  0.00833  Biso   1.000  O
  O28      1.0000 0.12678  0.20191  0.00833  Biso   1.000  O
  O29      1.0000 0.12678  0.50712  0.00833  Biso   1.000  O
  O30      1.0000 0.33988  0.50712  0.00833  Biso   1.000  O
  O31      1.0000 0.64509  0.98881  0.70312  Biso   1.000  O
  O32      1.0000 0.64509  0.20191  0.49002  Biso   1.000  O
  O33      1.0000 0.10071  0.57771  0.58801  Biso   1.000  O
  O34      1.0000 0.22477  0.57771  0.46395  Biso   1.000  O
  O35      1.0000 0.71568  0.96274  0.07892  Biso   1.000  O
  O36      1.0000 0.71568  0.08680  0.07892  Biso   1.000  O
  O37      1.0000 0.71568  0.08680  0.46395  Biso   1.000  O
  O38      1.0000 0.71568  0.96274  0.58801  Biso   1.000  O
  O39      1.0000 0.10071  0.57771  0.07892  Biso   1.000  O
  O40      1.0000 0.22477  0.57771  0.07892  Biso   1.000  O
  O41      1.0000 0.22477  0.96274  0.07892  Biso   1.000  O
  O42      1.0000 0.10071  0.08680  0.07892  Biso   1.000  O
  O43      1.0000 0.71568  0.57771  0.46395  Biso   1.000  O
  O44      1.0000 0.71568  0.57771  0.58801  Biso   1.000  O
  O45      1.0000 0.27771  0.52477  0.51689  Biso   1.000  O
  O46      1.0000 0.15365  0.52477  0.64095  Biso   1.000  O
  O47      1.0000 0.66274  0.01568  0.02598  Biso   1.000  O
  O48      1.0000 0.66274  0.13974  0.02598  Biso   1.000  O
  O49      1.0000 0.66274  0.52477  0.64095  Biso   1.000  O
  O50      1.0000 0.66274  0.52477  0.51689  Biso   1.000  O
  O51      1.0000 0.27771  0.01568  0.02598  Biso   1.000  O
  O52      1.0000 0.15365  0.13974  0.02598  Biso   1.000  O
  O53      1.0000 0.15365  0.52477  0.02598  Biso   1.000  O
  O54      1.0000 0.27771  0.52477  0.02598  Biso   1.000  O
  O55      1.0000 0.66274  0.01568  0.64095  Biso   1.000  O
  O56      1.0000 0.66274  0.13974  0.51689  Biso   1.000  O
  O57      1.0000 0.07617  0.66294  0.44209  Biso   1.000  O
  O58      1.0000 0.13403  0.60508  0.49995  Biso   1.000  O
  O59      1.0000 0.79823  0.94088  0.16415  Biso   1.000  O
  O60      1.0000 0.74037  0.99874  0.10630  Biso   1.000  O
  O61      1.0000 0.79823  0.94088  0.44209  Biso   1.000  O
  O62      1.0000 0.74037  0.99874  0.49995  Biso   1.000  O
  O63      1.0000 0.07617  0.66294  0.16415  Biso   1.000  O
  O64      1.0000 0.13403  0.60508  0.10630  Biso   1.000  O
  O65      1.0000 0.07617  0.94088  0.16415  Biso   1.000  O
  O66      1.0000 0.13403  0.99874  0.10630  Biso   1.000  O
  O67      1.0000 0.79823  0.66294  0.44209  Biso   1.000  O
  O68      1.0000 0.74037  0.60508  0.49995  Biso   1.000  O
  O69      1.0000 0.30225  0.43954  0.66281  Biso   1.000  O
  O70      1.0000 0.24439  0.49740  0.60496  Biso   1.000  O
  O71      1.0000 0.58019  0.16160  0.94075  Biso   1.000  O
  O72      1.0000 0.63805  0.10374  0.99861  Biso   1.000  O
  O73      1.0000 0.58019  0.43954  0.66281  Biso   1.000  O
  O74      1.0000 0.63805  0.49740  0.60496  Biso   1.000  O
  O75      1.0000 0.30225  0.16160  0.94075  Biso   1.000  O
  O76      1.0000 0.24439  0.10374  0.99861  Biso   1.000  O
  O77      1.0000 0.30225  0.43954  0.94075  Biso   1.000  O
  O78      1.0000 0.24439  0.49740  0.99861  Biso   1.000  O
  O79      1.0000 0.58019  0.16160  0.66281  Biso   1.000  O
  O80      1.0000 0.63805  0.10374  0.60496  Biso   1.000  O
  O81      1.0000 0.93720  0.80191  0.30312  Biso   1.000  O
  O82      1.0000 0.44122  0.30057  0.80178  Biso   1.000  O
  O83      1.0000 0.99268  0.68555  0.48037  Biso   1.000  O
  O84      1.0000 0.11444  0.68555  0.35860  Biso   1.000  O
  O85      1.0000 0.82084  0.85739  0.18676  Biso   1.000  O
  O86      1.0000 0.82084  0.97916  0.18676  Biso   1.000  O
  O87      1.0000 0.82084  0.97916  0.35860  Biso   1.000  O
  O88      1.0000 0.82084  0.85739  0.48037  Biso   1.000  O
  O89      1.0000 0.99268  0.68555  0.18676  Biso   1.000  O
  O90      1.0000 0.11444  0.68555  0.18676  Biso   1.000  O
  O91      1.0000 0.11444  0.85739  0.18676  Biso   1.000  O
  O92      1.0000 0.99268  0.97916  0.18676  Biso   1.000  O
  O93      1.0000 0.82084  0.68555  0.35860  Biso   1.000  O
  O94      1.0000 0.82084  0.68555  0.48037  Biso   1.000  O
  O95      1.0000 0.38574  0.41693  0.62454  Biso   1.000  O
  O96      1.0000 0.26398  0.41693  0.74630  Biso   1.000  O
  O97      1.0000 0.55758  0.12333  0.91814  Biso   1.000  O
  O98      1.0000 0.55758  0.24509  0.91814  Biso   1.000  O
  O99      1.0000 0.55758  0.41693  0.74630  Biso   1.000  O
  O100     1.0000 0.55758  0.41693  0.62454  Biso   1.000  O
  O101     1.0000 0.38574  0.12333  0.91814  Biso   1.000  O
  O102     1.0000 0.26398  0.24509  0.91814  Biso   1.000  O
  O103     1.0000 0.26398  0.41693  0.91814  Biso   1.000  O
  O104     1.0000 0.38574  0.41693  0.91814  Biso   1.000  O
  O105     1.0000 0.55758  0.12333  0.74630  Biso   1.000  O
  O106     1.0000 0.55758  0.24509  0.62454  Biso   1.000  O
