data_image0
_cell_length_a       18.3017
_cell_length_b       18.3017
_cell_length_c       18.3017
_cell_angle_alpha    60
_cell_angle_beta     60
_cell_angle_gamma    60

_symmetry_space_group_name_H-M    "P 1"
_symmetry_int_tables_number       1

loop_
  _symmetry_equiv_pos_as_xyz
  'x, y, z'

loop_
  _atom_site_label
  _atom_site_occupancy
  _atom_site_fract_x
  _atom_site_fract_y
  _atom_site_fract_z
  _atom_site_thermal_displace_type
  _atom_site_B_iso_or_equiv
  _atom_site_type_symbol
  Zn1      1.0000 0.29342  0.29343  0.11972  Biso   1.000  Zn
  Zn2      1.0000 0.29343  0.29342  0.29343  Biso   1.000  Zn
  Zn3      1.0000 0.11972  0.29343  0.29342  Biso   1.000  Zn
  Zn4      1.0000 0.29343  0.11972  0.29343  Biso   1.000  Zn
  Zn5      1.0000 0.70657  0.70658  0.88028  Biso   1.000  Zn
  Zn6      1.0000 0.70657  0.70658  0.70657  Biso   1.000  Zn
  Zn7      1.0000 0.70658  0.88028  0.70657  Biso   1.000  Zn
  Zn8      1.0000 0.88029  0.70657  0.70657  Biso   1.000  Zn
  H1       1.0000 0.45510  0.45510  0.93470  Biso   1.000  H
  H2       1.0000 0.45510  0.45510  0.15510  Biso   1.000  H
  H3       1.0000 0.93470  0.15510  0.45510  Biso   1.000  H
  H4       1.0000 0.15510  0.93470  0.45510  Biso   1.000  H
  H5       1.0000 0.45510  0.93470  0.15510  Biso   1.000  H
  H6       1.0000 0.45510  0.15510  0.93470  Biso   1.000  H
  H7       1.0000 0.93470  0.45510  0.45510  Biso   1.000  H
  H8       1.0000 0.15510  0.45510  0.45510  Biso   1.000  H
  H9       1.0000 0.45510  0.15510  0.45510  Biso   1.000  H
  H10      1.0000 0.45510  0.93470  0.45510  Biso   1.000  H
  H11      1.0000 0.93470  0.45510  0.15510  Biso   1.000  H
  H12      1.0000 0.15510  0.45510  0.93470  Biso   1.000  H
  H13      1.0000 0.54490  0.54490  0.06530  Biso   1.000  H
  H14      1.0000 0.54490  0.54490  0.84490  Biso   1.000  H
  H15      1.0000 0.84490  0.06530  0.54490  Biso   1.000  H
  H16      1.0000 0.06530  0.84490  0.54490  Biso   1.000  H
  H17      1.0000 0.06530  0.54490  0.84490  Biso   1.000  H
  H18      1.0000 0.84490  0.54490  0.06530  Biso   1.000  H
  H19      1.0000 0.54490  0.06530  0.54490  Biso   1.000  H
  H20      1.0000 0.54490  0.84490  0.54490  Biso   1.000  H
  H21      1.0000 0.84490  0.54490  0.54490  Biso   1.000  H
  H22      1.0000 0.06530  0.54490  0.54490  Biso   1.000  H
  H23      1.0000 0.54490  0.06530  0.84490  Biso   1.000  H
  H24      1.0000 0.54490  0.84490  0.06530  Biso   1.000  H
  C1       1.0000 0.47334  0.47334  0.96156  Biso   1.000  C
  C2       1.0000 0.47334  0.47334  0.09176  Biso   1.000  C
  C3       1.0000 0.96156  0.09176  0.47334  Biso   1.000  C
  C4       1.0000 0.09176  0.96156  0.47334  Biso   1.000  C
  C5       1.0000 0.47334  0.96156  0.09176  Biso   1.000  C
  C6       1.0000 0.47334  0.09176  0.96156  Biso   1.000  C
  C7       1.0000 0.96156  0.47334  0.47334  Biso   1.000  C
  C8       1.0000 0.09176  0.47334  0.47334  Biso   1.000  C
  C9       1.0000 0.47334  0.09176  0.47334  Biso   1.000  C
  C10      1.0000 0.47334  0.96156  0.47334  Biso   1.000  C
  C11      1.0000 0.96156  0.47334  0.09176  Biso   1.000  C
  C12      1.0000 0.09176  0.47334  0.96156  Biso   1.000  C
  C13      1.0000 0.52666  0.52666  0.03844  Biso   1.000  C
  C14      1.0000 0.52666  0.52666  0.90824  Biso   1.000  C
  C15      1.0000 0.90824  0.03844  0.52666  Biso   1.000  C
  C16      1.0000 0.03844  0.90824  0.52666  Biso   1.000  C
  C17      1.0000 0.03844  0.52666  0.90824  Biso   1.000  C
  C18      1.0000 0.90824  0.52666  0.03844  Biso   1.000  C
  C19      1.0000 0.52666  0.03844  0.52666  Biso   1.000  C
  C20      1.0000 0.52666  0.90824  0.52666  Biso   1.000  C
  C21      1.0000 0.90824  0.52666  0.52666  Biso   1.000  C
  C22      1.0000 0.03844  0.52666  0.52666  Biso   1.000  C
  C23      1.0000 0.52666  0.03844  0.90824  Biso   1.000  C
  C24      1.0000 0.52666  0.90824  0.03844  Biso   1.000  C
  C25      1.0000 0.38843  0.38843  0.11157  Biso   1.000  C
  C26      1.0000 0.44642  0.44642  0.05358  Biso   1.000  C
  C27      1.0000 0.11157  0.11157  0.38843  Biso   1.000  C
  C28      1.0000 0.05358  0.05358  0.44642  Biso   1.000  C
  C29      1.0000 0.38843  0.11157  0.11157  Biso   1.000  C
  C30      1.0000 0.44642  0.05358  0.05358  Biso   1.000  C
  C31      1.0000 0.11157  0.38843  0.38843  Biso   1.000  C
  C32      1.0000 0.05358  0.44642  0.44642  Biso   1.000  C
  C33      1.0000 0.38843  0.11157  0.38843  Biso   1.000  C
  C34      1.0000 0.44642  0.05358  0.44642  Biso   1.000  C
  C35      1.0000 0.11157  0.38843  0.11157  Biso   1.000  C
  C36      1.0000 0.05358  0.44642  0.05358  Biso   1.000  C
  C37      1.0000 0.61157  0.61157  0.88843  Biso   1.000  C
  C38      1.0000 0.55358  0.55358  0.94642  Biso   1.000  C
  C39      1.0000 0.88843  0.88843  0.61157  Biso   1.000  C
  C40      1.0000 0.94642  0.94642  0.55358  Biso   1.000  C
  C41      1.0000 0.88843  0.61157  0.88843  Biso   1.000  C
  C42      1.0000 0.94642  0.55358  0.94642  Biso   1.000  C
  C43      1.0000 0.61157  0.88843  0.61157  Biso   1.000  C
  C44      1.0000 0.55358  0.94642  0.55358  Biso   1.000  C
  C45      1.0000 0.88843  0.61157  0.61157  Biso   1.000  C
  C46      1.0000 0.94642  0.55358  0.55358  Biso   1.000  C
  C47      1.0000 0.61157  0.88843  0.88843  Biso   1.000  C
  C48      1.0000 0.55358  0.94642  0.94642  Biso   1.000  C
  O1       1.0000 0.25000  0.25000  0.25000  Biso   1.000  O
  O2       1.0000 0.75000  0.75000  0.75000  Biso   1.000  O
  O3       1.0000 0.36609  0.36609  0.07295  Biso   1.000  O
  O4       1.0000 0.36609  0.36609  0.19487  Biso   1.000  O
  O5       1.0000 0.07295  0.19487  0.36609  Biso   1.000  O
  O6       1.0000 0.19487  0.07295  0.36609  Biso   1.000  O
  O7       1.0000 0.36609  0.07295  0.19487  Biso   1.000  O
  O8       1.0000 0.36609  0.19487  0.07295  Biso   1.000  O
  O9       1.0000 0.07295  0.36609  0.36609  Biso   1.000  O
  O10      1.0000 0.19487  0.36609  0.36609  Biso   1.000  O
  O11      1.0000 0.36609  0.19487  0.36609  Biso   1.000  O
  O12      1.0000 0.36609  0.07295  0.36609  Biso   1.000  O
  O13      1.0000 0.07295  0.36609  0.19487  Biso   1.000  O
  O14      1.0000 0.19487  0.36609  0.07295  Biso   1.000  O
  O15      1.0000 0.63391  0.63391  0.92705  Biso   1.000  O
  O16      1.0000 0.63391  0.63391  0.80513  Biso   1.000  O
  O17      1.0000 0.80513  0.92705  0.63391  Biso   1.000  O
  O18      1.0000 0.92705  0.80513  0.63391  Biso   1.000  O
  O19      1.0000 0.92705  0.63391  0.80513  Biso   1.000  O
  O20      1.0000 0.80513  0.63391  0.92705  Biso   1.000  O
  O21      1.0000 0.63391  0.92705  0.63391  Biso   1.000  O
  O22      1.0000 0.63391  0.80513  0.63391  Biso   1.000  O
  O23      1.0000 0.80513  0.63391  0.63391  Biso   1.000  O
  O24      1.0000 0.92705  0.63391  0.63391  Biso   1.000  O
  O25      1.0000 0.63391  0.92705  0.80513  Biso   1.000  O
  O26      1.0000 0.63391  0.80513  0.92705  Biso   1.000  O
  Zn9      1.0000 0.68659  0.47916  0.34985  Biso   1.000  Zn
  Zn10     1.0000 0.51256  0.47916  0.52388  Biso   1.000  Zn
  Zn11     1.0000 0.51256  0.65318  0.34985  Biso   1.000  Zn
  Zn12     1.0000 0.51256  0.47916  0.34985  Biso   1.000  Zn
  Zn13     1.0000 0.92584  0.06608  0.93678  Biso   1.000  Zn
  Zn14     1.0000 0.09986  0.06608  0.76276  Biso   1.000  Zn
  Zn15     1.0000 0.09986  0.06608  0.93678  Biso   1.000  Zn
  Zn16     1.0000 0.09986  0.89206  0.93678  Biso   1.000  Zn
  H25      1.0000 0.87183  0.31793  0.48708  Biso   1.000  H
  H26      1.0000 0.64997  0.31793  0.70894  Biso   1.000  H
  H27      1.0000 0.35152  0.83824  0.18862  Biso   1.000  H
  H28      1.0000 0.35152  0.61639  0.18862  Biso   1.000  H
  H29      1.0000 0.35152  0.61639  0.70894  Biso   1.000  H
  H30      1.0000 0.35152  0.83824  0.48708  Biso   1.000  H
  H31      1.0000 0.87183  0.31793  0.18862  Biso   1.000  H
  H32      1.0000 0.64997  0.31793  0.18862  Biso   1.000  H
  H33      1.0000 0.64997  0.83824  0.18862  Biso   1.000  H
  H34      1.0000 0.87183  0.61639  0.18862  Biso   1.000  H
  H35      1.0000 0.35152  0.31793  0.70894  Biso   1.000  H
  H36      1.0000 0.35152  0.31793  0.48708  Biso   1.000  H
  H37      1.0000 0.74059  0.22731  0.79955  Biso   1.000  H
  H38      1.0000 0.96245  0.22731  0.57770  Biso   1.000  H
  H39      1.0000 0.26090  0.92886  0.09801  Biso   1.000  H
  H40      1.0000 0.26090  0.70700  0.09801  Biso   1.000  H
  H41      1.0000 0.26090  0.22731  0.57770  Biso   1.000  H
  H42      1.0000 0.26090  0.22731  0.79955  Biso   1.000  H
  H43      1.0000 0.74059  0.92886  0.09801  Biso   1.000  H
  H44      1.0000 0.96245  0.70700  0.09801  Biso   1.000  H
  H45      1.0000 0.96245  0.22731  0.09801  Biso   1.000  H
  H46      1.0000 0.74059  0.22731  0.09801  Biso   1.000  H
  H47      1.0000 0.26090  0.92886  0.57770  Biso   1.000  H
  H48      1.0000 0.26090  0.70700  0.79955  Biso   1.000  H
  C49      1.0000 0.84466  0.29908  0.55196  Biso   1.000  C
  C50      1.0000 0.71486  0.29908  0.68176  Biso   1.000  C
  C51      1.0000 0.33267  0.81107  0.16977  Biso   1.000  C
  C52      1.0000 0.33267  0.68127  0.16977  Biso   1.000  C
  C53      1.0000 0.33267  0.68127  0.68176  Biso   1.000  C
  C54      1.0000 0.33267  0.81107  0.55196  Biso   1.000  C
  C55      1.0000 0.84466  0.29908  0.16977  Biso   1.000  C
  C56      1.0000 0.71486  0.29908  0.16977  Biso   1.000  C
  C57      1.0000 0.71486  0.81107  0.16977  Biso   1.000  C
  C58      1.0000 0.84466  0.68127  0.16977  Biso   1.000  C
  C59      1.0000 0.33267  0.29908  0.68176  Biso   1.000  C
  C60      1.0000 0.33267  0.29908  0.55196  Biso   1.000  C
  C61      1.0000 0.76777  0.24617  0.73467  Biso   1.000  C
  C62      1.0000 0.89756  0.24617  0.60487  Biso   1.000  C
  C63      1.0000 0.27976  0.86398  0.11686  Biso   1.000  C
  C64      1.0000 0.27976  0.73418  0.11686  Biso   1.000  C
  C65      1.0000 0.27976  0.24617  0.60487  Biso   1.000  C
  C66      1.0000 0.27976  0.24617  0.73467  Biso   1.000  C
  C67      1.0000 0.76777  0.86398  0.11686  Biso   1.000  C
  C68      1.0000 0.89756  0.73418  0.11686  Biso   1.000  C
  C69      1.0000 0.89756  0.24617  0.11686  Biso   1.000  C
  C70      1.0000 0.76777  0.24617  0.11686  Biso   1.000  C
  C71      1.0000 0.27976  0.86398  0.60487  Biso   1.000  C
  C72      1.0000 0.27976  0.73418  0.73467  Biso   1.000  C
  C73      1.0000 0.69440  0.38434  0.53169  Biso   1.000  C
  C74      1.0000 0.75234  0.32640  0.58963  Biso   1.000  C
  C75      1.0000 0.41775  0.66099  0.25504  Biso   1.000  C
  C76      1.0000 0.35980  0.71893  0.19710  Biso   1.000  C
  C77      1.0000 0.41775  0.66099  0.53169  Biso   1.000  C
  C78      1.0000 0.35981  0.71893  0.58963  Biso   1.000  C
  C79      1.0000 0.69440  0.38434  0.25504  Biso   1.000  C
  C80      1.0000 0.75234  0.32640  0.19710  Biso   1.000  C
  C81      1.0000 0.69440  0.66099  0.25504  Biso   1.000  C
  C82      1.0000 0.75234  0.71893  0.19710  Biso   1.000  C
  C83      1.0000 0.41775  0.38434  0.53169  Biso   1.000  C
  C84      1.0000 0.35980  0.32640  0.58963  Biso   1.000  C
  C85      1.0000 0.91802  0.16090  0.75494  Biso   1.000  C
  C86      1.0000 0.86008  0.21884  0.69700  Biso   1.000  C
  C87      1.0000 0.19468  0.88425  0.03160  Biso   1.000  C
  C88      1.0000 0.25262  0.82631  0.08954  Biso   1.000  C
  C89      1.0000 0.19468  0.16090  0.75494  Biso   1.000  C
  C90      1.0000 0.25262  0.21884  0.69700  Biso   1.000  C
  C91      1.0000 0.91802  0.88425  0.03160  Biso   1.000  C
  C92      1.0000 0.86008  0.82631  0.08954  Biso   1.000  C
  C93      1.0000 0.91802  0.16090  0.03160  Biso   1.000  C
  C94      1.0000 0.86008  0.21884  0.08954  Biso   1.000  C
  C95      1.0000 0.19468  0.88425  0.75494  Biso   1.000  C
  C96      1.0000 0.25262  0.82631  0.69700  Biso   1.000  C
  O27      1.0000 0.73363  0.40652  0.44810  Biso   1.000  O
  O28      1.0000 0.61081  0.40652  0.57093  Biso   1.000  O
  O29      1.0000 0.43992  0.70023  0.27721  Biso   1.000  O
  O30      1.0000 0.43992  0.57741  0.27721  Biso   1.000  O
  O31      1.0000 0.43992  0.57741  0.57093  Biso   1.000  O
  O32      1.0000 0.43992  0.70023  0.44810  Biso   1.000  O
  O33      1.0000 0.73363  0.40652  0.27721  Biso   1.000  O
  O34      1.0000 0.61081  0.40652  0.27721  Biso   1.000  O
  O35      1.0000 0.61081  0.70023  0.27721  Biso   1.000  O
  O36      1.0000 0.73363  0.57741  0.27721  Biso   1.000  O
  O37      1.0000 0.43992  0.40652  0.57093  Biso   1.000  O
  O38      1.0000 0.43992  0.40652  0.44810  Biso   1.000  O
  O39      1.0000 0.87879  0.13873  0.83853  Biso   1.000  O
  O40      1.0000 0.00161  0.13873  0.71571  Biso   1.000  O
  O41      1.0000 0.17250  0.96783  0.00942  Biso   1.000  O
  O42      1.0000 0.17250  0.84501  0.00942  Biso   1.000  O
  O43      1.0000 0.17250  0.13873  0.71571  Biso   1.000  O
  O44      1.0000 0.17250  0.13873  0.83853  Biso   1.000  O
  O45      1.0000 0.87879  0.96783  0.00942  Biso   1.000  O
  O46      1.0000 0.00161  0.84501  0.00942  Biso   1.000  O
  O47      1.0000 0.00161  0.13873  0.00942  Biso   1.000  O
  O48      1.0000 0.87879  0.13873  0.00942  Biso   1.000  O
  O49      1.0000 0.17250  0.96784  0.71571  Biso   1.000  O
  O50      1.0000 0.17250  0.84501  0.83853  Biso   1.000  O
  O51      1.0000 0.55607  0.52267  0.39336  Biso   1.000  O
  O52      1.0000 0.05635  0.02258  0.89327  Biso   1.000  O
