data_image0
_cell_length_a       18.2861
_cell_length_b       18.2861
_cell_length_c       18.2861
_cell_angle_alpha    60
_cell_angle_beta     60
_cell_angle_gamma    60

_symmetry_space_group_name_H-M    "P 1"
_symmetry_int_tables_number       1

loop_
  _symmetry_equiv_pos_as_xyz
  'x, y, z'

loop_
  _atom_site_label
  _atom_site_occupancy
  _atom_site_fract_x
  _atom_site_fract_y
  _atom_site_fract_z
  _atom_site_thermal_displace_type
  _atom_site_B_iso_or_equiv
  _atom_site_type_symbol
  C1       1.0000 0.29346  0.29347  0.11960  Biso   1.000  C
  C2       1.0000 0.29346  0.29347  0.29347  Biso   1.000  C
  C3       1.0000 0.11959  0.29347  0.29347  Biso   1.000  C
  C4       1.0000 0.29346  0.11960  0.29347  Biso   1.000  C
  C5       1.0000 0.70654  0.70653  0.88040  Biso   1.000  C
  C6       1.0000 0.70654  0.70653  0.70653  Biso   1.000  C
  C7       1.0000 0.70654  0.88040  0.70653  Biso   1.000  C
  C8       1.0000 0.88041  0.70653  0.70653  Biso   1.000  C
  C9       1.0000 0.45500  0.45500  0.93520  Biso   1.000  C
  C10      1.0000 0.45500  0.45500  0.15480  Biso   1.000  C
  C11      1.0000 0.93520  0.15480  0.45500  Biso   1.000  C
  C12      1.0000 0.15480  0.93520  0.45500  Biso   1.000  C
  C13      1.0000 0.45500  0.93520  0.15480  Biso   1.000  C
  C14      1.0000 0.45500  0.15480  0.93520  Biso   1.000  C
  C15      1.0000 0.93520  0.45500  0.45500  Biso   1.000  C
  C16      1.0000 0.15480  0.45500  0.45500  Biso   1.000  C
  C17      1.0000 0.45500  0.15480  0.45500  Biso   1.000  C
  C18      1.0000 0.45500  0.93520  0.45500  Biso   1.000  C
  C19      1.0000 0.93520  0.45500  0.15480  Biso   1.000  C
  C20      1.0000 0.15480  0.45500  0.93520  Biso   1.000  C
  C21      1.0000 0.54500  0.54500  0.06480  Biso   1.000  C
  C22      1.0000 0.54500  0.54500  0.84520  Biso   1.000  C
  C23      1.0000 0.84520  0.06480  0.54500  Biso   1.000  C
  C24      1.0000 0.06480  0.84520  0.54500  Biso   1.000  C
  C25      1.0000 0.06480  0.54500  0.84520  Biso   1.000  C
  C26      1.0000 0.84520  0.54500  0.06480  Biso   1.000  C
  C27      1.0000 0.54500  0.06480  0.54500  Biso   1.000  C
  C28      1.0000 0.54500  0.84520  0.54500  Biso   1.000  C
  C29      1.0000 0.84520  0.54500  0.54500  Biso   1.000  C
  C30      1.0000 0.06480  0.54500  0.54500  Biso   1.000  C
  C31      1.0000 0.54500  0.06480  0.84520  Biso   1.000  C
  C32      1.0000 0.54500  0.84520  0.06480  Biso   1.000  C
  C33      1.0000 0.47322  0.47322  0.96212  Biso   1.000  C
  C34      1.0000 0.47322  0.47322  0.09144  Biso   1.000  C
  C35      1.0000 0.96212  0.09144  0.47322  Biso   1.000  C
  C36      1.0000 0.09144  0.96212  0.47322  Biso   1.000  C
  C37      1.0000 0.47322  0.96212  0.09144  Biso   1.000  C
  C38      1.0000 0.47322  0.09144  0.96212  Biso   1.000  C
  C39      1.0000 0.96212  0.47322  0.47322  Biso   1.000  C
  C40      1.0000 0.09144  0.47322  0.47322  Biso   1.000  C
  C41      1.0000 0.47322  0.09144  0.47322  Biso   1.000  C
  C42      1.0000 0.47322  0.96212  0.47322  Biso   1.000  C
  C43      1.0000 0.96212  0.47322  0.09144  Biso   1.000  C
  C44      1.0000 0.09144  0.47322  0.96212  Biso   1.000  C
  C45      1.0000 0.52678  0.52678  0.03788  Biso   1.000  C
  C46      1.0000 0.52678  0.52678  0.90856  Biso   1.000  C
  C47      1.0000 0.90856  0.03788  0.52678  Biso   1.000  C
  C48      1.0000 0.03788  0.90856  0.52678  Biso   1.000  C
  C49      1.0000 0.03788  0.52678  0.90856  Biso   1.000  C
  C50      1.0000 0.90856  0.52678  0.03788  Biso   1.000  C
  C51      1.0000 0.52678  0.03788  0.52678  Biso   1.000  C
  C52      1.0000 0.52678  0.90856  0.52678  Biso   1.000  C
  C53      1.0000 0.90856  0.52678  0.52678  Biso   1.000  C
  C54      1.0000 0.03788  0.52678  0.52678  Biso   1.000  C
  C55      1.0000 0.52678  0.03788  0.90856  Biso   1.000  C
  C56      1.0000 0.52678  0.90856  0.03788  Biso   1.000  C
  C57      1.0000 0.38840  0.38840  0.11160  Biso   1.000  C
  C58      1.0000 0.44639  0.44639  0.05361  Biso   1.000  C
  C59      1.0000 0.11160  0.11160  0.38840  Biso   1.000  C
  C60      1.0000 0.05361  0.05361  0.44639  Biso   1.000  C
  C61      1.0000 0.38840  0.11160  0.11160  Biso   1.000  C
  C62      1.0000 0.44639  0.05361  0.05361  Biso   1.000  C
  C63      1.0000 0.11160  0.38840  0.38840  Biso   1.000  C
  C64      1.0000 0.05361  0.44639  0.44639  Biso   1.000  C
  C65      1.0000 0.38840  0.11160  0.38840  Biso   1.000  C
  C66      1.0000 0.44639  0.05361  0.44639  Biso   1.000  C
  C67      1.0000 0.11160  0.38840  0.11160  Biso   1.000  C
  C68      1.0000 0.05361  0.44639  0.05361  Biso   1.000  C
  C69      1.0000 0.61160  0.61160  0.88840  Biso   1.000  C
  C70      1.0000 0.55361  0.55361  0.94639  Biso   1.000  C
  C71      1.0000 0.88840  0.88840  0.61160  Biso   1.000  C
  C72      1.0000 0.94639  0.94639  0.55361  Biso   1.000  C
  C73      1.0000 0.88840  0.61160  0.88840  Biso   1.000  C
  C74      1.0000 0.94639  0.55361  0.94639  Biso   1.000  C
  C75      1.0000 0.61160  0.88840  0.61160  Biso   1.000  C
  C76      1.0000 0.55361  0.94639  0.55361  Biso   1.000  C
  C77      1.0000 0.88840  0.61160  0.61160  Biso   1.000  C
  C78      1.0000 0.94639  0.55361  0.55361  Biso   1.000  C
  C79      1.0000 0.61160  0.88840  0.88840  Biso   1.000  C
  C80      1.0000 0.55361  0.94639  0.94639  Biso   1.000  C
  C81      1.0000 0.25000  0.25000  0.25000  Biso   1.000  C
  C82      1.0000 0.75000  0.75000  0.75000  Biso   1.000  C
  C83      1.0000 0.36612  0.36612  0.07298  Biso   1.000  C
  C84      1.0000 0.36612  0.36612  0.19478  Biso   1.000  C
  C85      1.0000 0.07298  0.19478  0.36612  Biso   1.000  C
  C86      1.0000 0.19478  0.07298  0.36612  Biso   1.000  C
  C87      1.0000 0.36612  0.07298  0.19478  Biso   1.000  C
  C88      1.0000 0.36612  0.19478  0.07298  Biso   1.000  C
  C89      1.0000 0.07298  0.36612  0.36612  Biso   1.000  C
  C90      1.0000 0.19478  0.36612  0.36612  Biso   1.000  C
  C91      1.0000 0.36612  0.19478  0.36612  Biso   1.000  C
  C92      1.0000 0.36612  0.07298  0.36612  Biso   1.000  C
  C93      1.0000 0.07298  0.36612  0.19478  Biso   1.000  C
  C94      1.0000 0.19478  0.36612  0.07298  Biso   1.000  C
  C95      1.0000 0.63388  0.63388  0.92702  Biso   1.000  C
  C96      1.0000 0.63388  0.63388  0.80522  Biso   1.000  C
  C97      1.0000 0.80522  0.92702  0.63388  Biso   1.000  C
  C98      1.0000 0.92702  0.80522  0.63388  Biso   1.000  C
  C99      1.0000 0.92702  0.63388  0.80522  Biso   1.000  C
  C100     1.0000 0.80522  0.63388  0.92702  Biso   1.000  C
  C101     1.0000 0.63388  0.92702  0.63388  Biso   1.000  C
  C102     1.0000 0.63388  0.80522  0.63388  Biso   1.000  C
  C103     1.0000 0.80522  0.63388  0.63388  Biso   1.000  C
  C104     1.0000 0.92702  0.63388  0.63388  Biso   1.000  C
  C105     1.0000 0.63388  0.92702  0.80522  Biso   1.000  C
  C106     1.0000 0.63388  0.80522  0.92702  Biso   1.000  C
  O1       1.0000 0.59388  0.07797  0.71990  Biso   1.000  O
  O2       1.0000 0.59388  0.25211  0.71990  Biso   1.000  O
  O3       1.0000 0.41974  0.25211  0.71990  Biso   1.000  O
  O4       1.0000 0.59388  0.25211  0.54576  Biso   1.000  O
  O5       1.0000 0.01071  0.66375  0.13153  Biso   1.000  O
  O6       1.0000 0.01071  0.83789  0.13153  Biso   1.000  O
  O7       1.0000 0.18485  0.66375  0.13153  Biso   1.000  O
  O8       1.0000 0.01071  0.66375  0.30567  Biso   1.000  O
  O9       1.0000 0.45600  0.89206  0.88179  Biso   1.000  O
  O10      1.0000 0.75578  0.41401  0.58202  Biso   1.000  O
  O11      1.0000 0.23383  0.11424  0.88179  Biso   1.000  O
  O12      1.0000 0.75578  0.41401  0.35984  Biso   1.000  O
  O13      1.0000 0.23383  0.41401  0.58202  Biso   1.000  O
  O14      1.0000 0.75578  0.11424  0.88179  Biso   1.000  O
  O15      1.0000 0.45600  0.41401  0.35984  Biso   1.000  O
  O16      1.0000 0.75578  0.89206  0.88179  Biso   1.000  O
  O17      1.0000 0.75578  0.11424  0.35984  Biso   1.000  O
  O18      1.0000 0.45600  0.41401  0.88179  Biso   1.000  O
  O19      1.0000 0.75578  0.89206  0.58202  Biso   1.000  O
  O20      1.0000 0.23383  0.41401  0.88179  Biso   1.000  O
  O21      1.0000 0.14858  0.50185  0.96963  Biso   1.000  O
  O22      1.0000 0.84881  0.02380  0.26941  Biso   1.000  O
  O23      1.0000 0.37076  0.50185  0.96963  Biso   1.000  O
  O24      1.0000 0.84881  0.80163  0.49158  Biso   1.000  O
  O25      1.0000 0.37076  0.50185  0.26941  Biso   1.000  O
  O26      1.0000 0.84881  0.02380  0.96963  Biso   1.000  O
  O27      1.0000 0.14858  0.50185  0.49158  Biso   1.000  O
  O28      1.0000 0.84881  0.80163  0.96963  Biso   1.000  O
  O29      1.0000 0.84881  0.50185  0.49158  Biso   1.000  O
  O30      1.0000 0.14858  0.02380  0.96963  Biso   1.000  O
  O31      1.0000 0.84881  0.50185  0.26941  Biso   1.000  O
  O32      1.0000 0.37076  0.80163  0.96963  Biso   1.000  O
  O33      1.0000 0.39263  0.91868  0.90017  Biso   1.000  O
  O34      1.0000 0.77416  0.43239  0.51864  Biso   1.000  O
  O35      1.0000 0.26045  0.05086  0.90017  Biso   1.000  O
  O36      1.0000 0.77416  0.43239  0.38646  Biso   1.000  O
  O37      1.0000 0.26045  0.43239  0.51864  Biso   1.000  O
  O38      1.0000 0.77416  0.05086  0.90017  Biso   1.000  O
  O39      1.0000 0.39263  0.43239  0.38646  Biso   1.000  O
  O40      1.0000 0.77416  0.91868  0.90017  Biso   1.000  O
  O41      1.0000 0.77416  0.05086  0.38646  Biso   1.000  O
  O42      1.0000 0.39263  0.43239  0.90017  Biso   1.000  O
  O43      1.0000 0.77416  0.91868  0.51864  Biso   1.000  O
  O44      1.0000 0.26045  0.43239  0.90017  Biso   1.000  O
  O45      1.0000 0.21196  0.48347  0.95126  Biso   1.000  O
  O46      1.0000 0.83043  0.99718  0.33278  Biso   1.000  O
  O47      1.0000 0.34414  0.48347  0.95126  Biso   1.000  O
  O48      1.0000 0.83043  0.86500  0.46497  Biso   1.000  O
  O49      1.0000 0.34414  0.48347  0.33278  Biso   1.000  O
  O50      1.0000 0.83043  0.99718  0.95126  Biso   1.000  O
  O51      1.0000 0.21196  0.48347  0.46497  Biso   1.000  O
  O52      1.0000 0.83043  0.86500  0.95126  Biso   1.000  O
  O53      1.0000 0.83043  0.48347  0.46497  Biso   1.000  O
  O54      1.0000 0.21196  0.99718  0.95126  Biso   1.000  O
  O55      1.0000 0.83043  0.48347  0.33278  Biso   1.000  O
  O56      1.0000 0.34414  0.86500  0.95126  Biso   1.000  O
  O57      1.0000 0.41153  0.06976  0.81518  Biso   1.000  O
  O58      1.0000 0.35357  0.01180  0.87314  Biso   1.000  O
  O59      1.0000 0.68917  0.34740  0.53754  Biso   1.000  O
  O60      1.0000 0.74713  0.40536  0.47958  Biso   1.000  O
  O61      1.0000 0.41153  0.34740  0.53754  Biso   1.000  O
  O62      1.0000 0.35357  0.40536  0.47958  Biso   1.000  O
  O63      1.0000 0.68917  0.06976  0.81518  Biso   1.000  O
  O64      1.0000 0.74713  0.01180  0.87314  Biso   1.000  O
  O65      1.0000 0.68917  0.06976  0.53754  Biso   1.000  O
  O66      1.0000 0.74713  0.01180  0.47958  Biso   1.000  O
  O67      1.0000 0.41153  0.34740  0.81518  Biso   1.000  O
  O68      1.0000 0.35357  0.40536  0.87314  Biso   1.000  O
  O69      1.0000 0.19306  0.56846  0.03625  Biso   1.000  O
  O70      1.0000 0.25102  0.51050  0.97829  Biso   1.000  O
  O71      1.0000 0.91542  0.84610  0.31389  Biso   1.000  O
  O72      1.0000 0.85746  0.90406  0.37185  Biso   1.000  O
  O73      1.0000 0.19306  0.56846  0.31389  Biso   1.000  O
  O74      1.0000 0.25102  0.51050  0.37185  Biso   1.000  O
  O75      1.0000 0.91542  0.84610  0.03625  Biso   1.000  O
  O76      1.0000 0.85746  0.90406  0.97829  Biso   1.000  O
  O77      1.0000 0.91542  0.56846  0.31389  Biso   1.000  O
  O78      1.0000 0.85746  0.51050  0.37185  Biso   1.000  O
  O79      1.0000 0.19306  0.84610  0.03625  Biso   1.000  O
  O80      1.0000 0.25102  0.90406  0.97829  Biso   1.000  O
  O81      1.0000 0.55035  0.20858  0.67636  Biso   1.000  O
  O82      1.0000 0.05424  0.70728  0.17507  Biso   1.000  O
  O83      1.0000 0.49531  0.03046  0.79294  Biso   1.000  O
  O84      1.0000 0.66693  0.32516  0.62132  Biso   1.000  O
  O85      1.0000 0.37223  0.15354  0.79294  Biso   1.000  O
  O86      1.0000 0.66693  0.32516  0.49824  Biso   1.000  O
  O87      1.0000 0.37223  0.32516  0.62132  Biso   1.000  O
  O88      1.0000 0.66693  0.15354  0.79294  Biso   1.000  O
  O89      1.0000 0.49531  0.32516  0.49824  Biso   1.000  O
  O90      1.0000 0.66693  0.03046  0.79294  Biso   1.000  O
  O91      1.0000 0.66693  0.15354  0.49824  Biso   1.000  O
  O92      1.0000 0.49531  0.32516  0.79294  Biso   1.000  O
  O93      1.0000 0.66693  0.03046  0.62132  Biso   1.000  O
  O94      1.0000 0.37223  0.32516  0.79294  Biso   1.000  O
  O95      1.0000 0.10928  0.59070  0.05848  Biso   1.000  O
  O96      1.0000 0.93766  0.88540  0.23011  Biso   1.000  O
  O97      1.0000 0.23236  0.59070  0.05848  Biso   1.000  O
  O98      1.0000 0.93766  0.76233  0.35319  Biso   1.000  O
  O99      1.0000 0.23236  0.59070  0.23011  Biso   1.000  O
  O100     1.0000 0.93766  0.88540  0.05848  Biso   1.000  O
  O101     1.0000 0.10928  0.59070  0.35319  Biso   1.000  O
  O102     1.0000 0.93766  0.76233  0.05848  Biso   1.000  O
  O103     1.0000 0.93766  0.59070  0.35319  Biso   1.000  O
  O104     1.0000 0.10928  0.88540  0.05848  Biso   1.000  O
  O105     1.0000 0.93766  0.59070  0.23011  Biso   1.000  O
  O106     1.0000 0.23236  0.76233  0.05848  Biso   1.000  O
