data_image0
_cell_length_a       18.2422
_cell_length_b       18.2422
_cell_length_c       18.2422
_cell_angle_alpha    60
_cell_angle_beta     60
_cell_angle_gamma    60

_symmetry_space_group_name_H-M    "P 1"
_symmetry_int_tables_number       1

loop_
  _symmetry_equiv_pos_as_xyz
  'x, y, z'

loop_
  _atom_site_label
  _atom_site_occupancy
  _atom_site_fract_x
  _atom_site_fract_y
  _atom_site_fract_z
  _atom_site_thermal_displace_type
  _atom_site_B_iso_or_equiv
  _atom_site_type_symbol
  Zn1      1.0000 0.29356  0.29355  0.11934  Biso   1.000  Zn
  Zn2      1.0000 0.29356  0.29355  0.29355  Biso   1.000  Zn
  Zn3      1.0000 0.11935  0.29355  0.29355  Biso   1.000  Zn
  Zn4      1.0000 0.29356  0.11934  0.29355  Biso   1.000  Zn
  Zn5      1.0000 0.70644  0.70645  0.88066  Biso   1.000  Zn
  Zn6      1.0000 0.70644  0.70645  0.70645  Biso   1.000  Zn
  Zn7      1.0000 0.70644  0.88066  0.70645  Biso   1.000  Zn
  Zn8      1.0000 0.88065  0.70645  0.70645  Biso   1.000  Zn
  H1       1.0000 0.45610  0.45610  0.93590  Biso   1.000  H
  H2       1.0000 0.45610  0.45610  0.15190  Biso   1.000  H
  H3       1.0000 0.93590  0.15190  0.45610  Biso   1.000  H
  H4       1.0000 0.15190  0.93590  0.45610  Biso   1.000  H
  H5       1.0000 0.45610  0.93590  0.15190  Biso   1.000  H
  H6       1.0000 0.45610  0.15190  0.93590  Biso   1.000  H
  H7       1.0000 0.93590  0.45610  0.45610  Biso   1.000  H
  H8       1.0000 0.15190  0.45610  0.45610  Biso   1.000  H
  H9       1.0000 0.45610  0.15190  0.45610  Biso   1.000  H
  H10      1.0000 0.45610  0.93590  0.45610  Biso   1.000  H
  H11      1.0000 0.93590  0.45610  0.15190  Biso   1.000  H
  H12      1.0000 0.15190  0.45610  0.93590  Biso   1.000  H
  H13      1.0000 0.54390  0.54390  0.06410  Biso   1.000  H
  H14      1.0000 0.54390  0.54390  0.84810  Biso   1.000  H
  H15      1.0000 0.84810  0.06410  0.54390  Biso   1.000  H
  H16      1.0000 0.06410  0.84810  0.54390  Biso   1.000  H
  H17      1.0000 0.06410  0.54390  0.84810  Biso   1.000  H
  H18      1.0000 0.84810  0.54390  0.06410  Biso   1.000  H
  H19      1.0000 0.54390  0.06410  0.54390  Biso   1.000  H
  H20      1.0000 0.54390  0.84810  0.54390  Biso   1.000  H
  H21      1.0000 0.84810  0.54390  0.54390  Biso   1.000  H
  H22      1.0000 0.06410  0.54390  0.54390  Biso   1.000  H
  H23      1.0000 0.54390  0.06410  0.84810  Biso   1.000  H
  H24      1.0000 0.54390  0.84810  0.06410  Biso   1.000  H
  C1       1.0000 0.47369  0.47369  0.96285  Biso   1.000  C
  C2       1.0000 0.47369  0.47369  0.08977  Biso   1.000  C
  C3       1.0000 0.96285  0.08977  0.47369  Biso   1.000  C
  C4       1.0000 0.08977  0.96285  0.47369  Biso   1.000  C
  C5       1.0000 0.47369  0.96285  0.08977  Biso   1.000  C
  C6       1.0000 0.47369  0.08977  0.96285  Biso   1.000  C
  C7       1.0000 0.96285  0.47369  0.47369  Biso   1.000  C
  C8       1.0000 0.08977  0.47369  0.47369  Biso   1.000  C
  C9       1.0000 0.47369  0.08977  0.47369  Biso   1.000  C
  C10      1.0000 0.47369  0.96285  0.47369  Biso   1.000  C
  C11      1.0000 0.96285  0.47369  0.08977  Biso   1.000  C
  C12      1.0000 0.08977  0.47369  0.96285  Biso   1.000  C
  C13      1.0000 0.52631  0.52631  0.03715  Biso   1.000  C
  C14      1.0000 0.52631  0.52631  0.91023  Biso   1.000  C
  C15      1.0000 0.91023  0.03715  0.52631  Biso   1.000  C
  C16      1.0000 0.03715  0.91023  0.52631  Biso   1.000  C
  C17      1.0000 0.03715  0.52631  0.91023  Biso   1.000  C
  C18      1.0000 0.91023  0.52631  0.03715  Biso   1.000  C
  C19      1.0000 0.52631  0.03715  0.52631  Biso   1.000  C
  C20      1.0000 0.52631  0.91023  0.52631  Biso   1.000  C
  C21      1.0000 0.91023  0.52631  0.52631  Biso   1.000  C
  C22      1.0000 0.03715  0.52631  0.52631  Biso   1.000  C
  C23      1.0000 0.52631  0.03715  0.91023  Biso   1.000  C
  C24      1.0000 0.52631  0.91023  0.03715  Biso   1.000  C
  C25      1.0000 0.38870  0.38870  0.11130  Biso   1.000  C
  C26      1.0000 0.44610  0.44610  0.05390  Biso   1.000  C
  C27      1.0000 0.11130  0.11130  0.38870  Biso   1.000  C
  C28      1.0000 0.05390  0.05390  0.44610  Biso   1.000  C
  C29      1.0000 0.38870  0.11130  0.11130  Biso   1.000  C
  C30      1.0000 0.44610  0.05390  0.05390  Biso   1.000  C
  C31      1.0000 0.11130  0.38870  0.38870  Biso   1.000  C
  C32      1.0000 0.05390  0.44610  0.44610  Biso   1.000  C
  C33      1.0000 0.38870  0.11130  0.38870  Biso   1.000  C
  C34      1.0000 0.44610  0.05390  0.44610  Biso   1.000  C
  C35      1.0000 0.11130  0.38870  0.11130  Biso   1.000  C
  C36      1.0000 0.05390  0.44610  0.05390  Biso   1.000  C
  C37      1.0000 0.61130  0.61130  0.88870  Biso   1.000  C
  C38      1.0000 0.55390  0.55390  0.94610  Biso   1.000  C
  C39      1.0000 0.88870  0.88870  0.61130  Biso   1.000  C
  C40      1.0000 0.94610  0.94610  0.55390  Biso   1.000  C
  C41      1.0000 0.88870  0.61130  0.88870  Biso   1.000  C
  C42      1.0000 0.94610  0.55390  0.94610  Biso   1.000  C
  C43      1.0000 0.61130  0.88870  0.61130  Biso   1.000  C
  C44      1.0000 0.55390  0.94610  0.55390  Biso   1.000  C
  C45      1.0000 0.88870  0.61130  0.61130  Biso   1.000  C
  C46      1.0000 0.94610  0.55390  0.55390  Biso   1.000  C
  C47      1.0000 0.61130  0.88870  0.88870  Biso   1.000  C
  C48      1.0000 0.55390  0.94610  0.94610  Biso   1.000  C
  O1       1.0000 0.25000  0.25000  0.25000  Biso   1.000  O
  O2       1.0000 0.75000  0.75000  0.75000  Biso   1.000  O
  O3       1.0000 0.36609  0.36609  0.07323  Biso   1.000  O
  O4       1.0000 0.36609  0.36609  0.19459  Biso   1.000  O
  O5       1.0000 0.07323  0.19459  0.36609  Biso   1.000  O
  O6       1.0000 0.19459  0.07323  0.36609  Biso   1.000  O
  O7       1.0000 0.36609  0.07323  0.19459  Biso   1.000  O
  O8       1.0000 0.36609  0.19459  0.07323  Biso   1.000  O
  O9       1.0000 0.07323  0.36609  0.36609  Biso   1.000  O
  O10      1.0000 0.19459  0.36609  0.36609  Biso   1.000  O
  O11      1.0000 0.36609  0.19459  0.36609  Biso   1.000  O
  O12      1.0000 0.36609  0.07323  0.36609  Biso   1.000  O
  O13      1.0000 0.07323  0.36609  0.19459  Biso   1.000  O
  O14      1.0000 0.19459  0.36609  0.07323  Biso   1.000  O
  O15      1.0000 0.63391  0.63391  0.92677  Biso   1.000  O
  O16      1.0000 0.63391  0.63391  0.80541  Biso   1.000  O
  O17      1.0000 0.80541  0.92677  0.63391  Biso   1.000  O
  O18      1.0000 0.92677  0.80541  0.63391  Biso   1.000  O
  O19      1.0000 0.92677  0.63391  0.80541  Biso   1.000  O
  O20      1.0000 0.80541  0.63391  0.92677  Biso   1.000  O
  O21      1.0000 0.63391  0.92677  0.63391  Biso   1.000  O
  O22      1.0000 0.63391  0.80541  0.63391  Biso   1.000  O
  O23      1.0000 0.80541  0.63391  0.63391  Biso   1.000  O
  O24      1.0000 0.92677  0.63391  0.63391  Biso   1.000  O
  O25      1.0000 0.63391  0.92677  0.80541  Biso   1.000  O
  O26      1.0000 0.63391  0.80541  0.92677  Biso   1.000  O
  Zn9      1.0000 0.00547  0.83516  0.13328  Biso   1.000  Zn
  Zn10     1.0000 0.83390  0.00674  0.13328  Biso   1.000  Zn
  Zn11     1.0000 0.42710  0.42836  0.72648  Biso   1.000  Zn
  Zn12     1.0000 0.00547  0.00674  0.13328  Biso   1.000  Zn
  Zn13     1.0000 0.42710  0.59994  0.55490  Biso   1.000  Zn
  Zn14     1.0000 0.42710  0.42836  0.55490  Biso   1.000  Zn
  Zn15     1.0000 0.59867  0.42836  0.55490  Biso   1.000  Zn
  Zn16     1.0000 0.00547  0.00674  0.96170  Biso   1.000  Zn
  C49      1.0000 0.63048  0.75390  0.37623  Biso   1.000  C
  C50      1.0000 0.18415  0.68120  0.31195  Biso   1.000  C
  C51      1.0000 0.75264  0.24969  0.37623  Biso   1.000  C
  C52      1.0000 0.15577  0.77065  0.89719  Biso   1.000  C
  C53      1.0000 0.63048  0.24969  0.88044  Biso   1.000  C
  C54      1.0000 0.76939  0.77065  0.28358  Biso   1.000  C
  C55      1.0000 0.60526  0.60652  0.46253  Biso   1.000  C
  C56      1.0000 0.67993  0.80336  0.31195  Biso   1.000  C
  C57      1.0000 0.80209  0.68120  0.31195  Biso   1.000  C
  C58      1.0000 0.15577  0.15704  0.89719  Biso   1.000  C
  C59      1.0000 0.15577  0.77065  0.28358  Biso   1.000  C
  C60      1.0000 0.24842  0.75390  0.75828  Biso   1.000  C
  C61      1.0000 0.24842  0.63174  0.37623  Biso   1.000  C
  C62      1.0000 0.09784  0.82858  0.22565  Biso   1.000  C
  C63      1.0000 0.82731  0.09911  0.95512  Biso   1.000  C
  C64      1.0000 0.60526  0.33599  0.46253  Biso   1.000  C
  C65      1.0000 0.82731  0.09911  0.22565  Biso   1.000  C
  C66      1.0000 0.82731  0.82858  0.22565  Biso   1.000  C
  C67      1.0000 0.75264  0.63174  0.37623  Biso   1.000  C
  C68      1.0000 0.80209  0.18541  0.31195  Biso   1.000  C
  C69      1.0000 0.33473  0.60652  0.46253  Biso   1.000  C
  C70      1.0000 0.67993  0.18541  0.31195  Biso   1.000  C
  C71      1.0000 0.24842  0.63174  0.88044  Biso   1.000  C
  C72      1.0000 0.09784  0.09911  0.95512  Biso   1.000  C
  C73      1.0000 0.67993  0.18541  0.92990  Biso   1.000  C
  C74      1.0000 0.60526  0.33599  0.73306  Biso   1.000  C
  C75      1.0000 0.27680  0.66445  0.40460  Biso   1.000  C
  C76      1.0000 0.63048  0.24969  0.37623  Biso   1.000  C
  C77      1.0000 0.18415  0.18541  0.80774  Biso   1.000  C
  C78      1.0000 0.09784  0.82858  0.95512  Biso   1.000  C
  C79      1.0000 0.75264  0.24969  0.75828  Biso   1.000  C
  C80      1.0000 0.18415  0.18541  0.92990  Biso   1.000  C
  C81      1.0000 0.66318  0.27806  0.79099  Biso   1.000  C
  C82      1.0000 0.24842  0.75390  0.37623  Biso   1.000  C
  C83      1.0000 0.24842  0.24969  0.75828  Biso   1.000  C
  C84      1.0000 0.33473  0.60652  0.73306  Biso   1.000  C
  C85      1.0000 0.24842  0.24969  0.88044  Biso   1.000  C
  C86      1.0000 0.18415  0.68120  0.92990  Biso   1.000  C
  C87      1.0000 0.18415  0.80336  0.80774  Biso   1.000  C
  C88      1.0000 0.76939  0.15704  0.28358  Biso   1.000  C
  C89      1.0000 0.18415  0.80336  0.31195  Biso   1.000  C
  C90      1.0000 0.66318  0.27806  0.40460  Biso   1.000  C
  C91      1.0000 0.27680  0.66445  0.79099  Biso   1.000  C
  C92      1.0000 0.33473  0.33599  0.73306  Biso   1.000  C
  C93      1.0000 0.27680  0.27806  0.79099  Biso   1.000  C
  C94      1.0000 0.76939  0.15704  0.89719  Biso   1.000  C
  C95      1.0000 0.80209  0.18541  0.80774  Biso   1.000  C
  C96      1.0000 0.66318  0.66445  0.40460  Biso   1.000  C
  O27      1.0000 0.35532  0.64837  0.48312  Biso   1.000  O
  O28      1.0000 0.35532  0.64837  0.65003  Biso   1.000  O
  O29      1.0000 0.07725  0.78673  0.20506  Biso   1.000  O
  O30      1.0000 0.52222  0.35658  0.77491  Biso   1.000  O
  O31      1.0000 0.35532  0.35658  0.77491  Biso   1.000  O
  O32      1.0000 0.07725  0.78673  0.03815  Biso   1.000  O
  O33      1.0000 0.91034  0.07852  0.91327  Biso   1.000  O
  O34      1.0000 0.07725  0.07852  0.91327  Biso   1.000  O
  O35      1.0000 0.35532  0.52349  0.48312  Biso   1.000  O
  O36      1.0000 0.64711  0.52349  0.48312  Biso   1.000  O
  O37      1.0000 0.07725  0.91161  0.20506  Biso   1.000  O
  O38      1.0000 0.35532  0.35658  0.65003  Biso   1.000  O
  O39      1.0000 0.91034  0.07852  0.20506  Biso   1.000  O
  O40      1.0000 0.78546  0.91161  0.20506  Biso   1.000  O
  O41      1.0000 0.78546  0.07852  0.20506  Biso   1.000  O
  O42      1.0000 0.35532  0.52349  0.77491  Biso   1.000  O
  O43      1.0000 0.46999  0.47125  0.59779  Biso   1.000  O
  O44      1.0000 0.52222  0.64837  0.48312  Biso   1.000  O
  O45      1.0000 0.91034  0.78673  0.20506  Biso   1.000  O
  O46      1.0000 0.78546  0.07852  0.03815  Biso   1.000  O
  O47      1.0000 0.64711  0.35658  0.48312  Biso   1.000  O
  O48      1.0000 0.07725  0.07852  0.03815  Biso   1.000  O
  O49      1.0000 0.96258  0.96384  0.09038  Biso   1.000  O
  O50      1.0000 0.52222  0.35658  0.48312  Biso   1.000  O
  O51      1.0000 0.07725  0.91161  0.91327  Biso   1.000  O
  O52      1.0000 0.64711  0.35658  0.65003  Biso   1.000  O
  H25      1.0000 0.55482  0.78569  0.39816  Biso   1.000  H
  H26      1.0000 0.16444  0.64548  0.29225  Biso   1.000  H
  H27      1.0000 0.78443  0.27162  0.39816  Biso   1.000  H
  H28      1.0000 0.55482  0.27162  0.91223  Biso   1.000  H
  H29      1.0000 0.64814  0.87901  0.29002  Biso   1.000  H
  H30      1.0000 0.87721  0.64548  0.29225  Biso   1.000  H
  H31      1.0000 0.27035  0.78569  0.68263  Biso   1.000  H
  H32      1.0000 0.27035  0.55609  0.39816  Biso   1.000  H
  H33      1.0000 0.78443  0.55609  0.39816  Biso   1.000  H
  H34      1.0000 0.87775  0.16348  0.29002  Biso   1.000  H
  H35      1.0000 0.64814  0.16348  0.29002  Biso   1.000  H
  H36      1.0000 0.27035  0.55609  0.91223  Biso   1.000  H
  H37      1.0000 0.64814  0.16348  0.00555  Biso   1.000  H
  H38      1.0000 0.55482  0.27162  0.39816  Biso   1.000  H
  H39      1.0000 0.16444  0.16571  0.77202  Biso   1.000  H
  H40      1.0000 0.78835  0.26939  0.68316  Biso   1.000  H
  H41      1.0000 0.16444  0.16571  0.00502  Biso   1.000  H
  H42      1.0000 0.26813  0.78961  0.39593  Biso   1.000  H
  H43      1.0000 0.27035  0.27162  0.68263  Biso   1.000  H
  H44      1.0000 0.27035  0.27162  0.91223  Biso   1.000  H
  H45      1.0000 0.16444  0.64548  0.00502  Biso   1.000  H
  H46      1.0000 0.16444  0.87848  0.77202  Biso   1.000  H
  H47      1.0000 0.16444  0.87848  0.29225  Biso   1.000  H
  H48      1.0000 0.87775  0.16348  0.77594  Biso   1.000  H
