data_image0
_cell_length_a       18.2422
_cell_length_b       18.2422
_cell_length_c       18.2422
_cell_angle_alpha    60
_cell_angle_beta     60
_cell_angle_gamma    60

_symmetry_space_group_name_H-M    "P 1"
_symmetry_int_tables_number       1

loop_
  _symmetry_equiv_pos_as_xyz
  'x, y, z'

loop_
  _atom_site_label
  _atom_site_occupancy
  _atom_site_fract_x
  _atom_site_fract_y
  _atom_site_fract_z
  _atom_site_thermal_displace_type
  _atom_site_B_iso_or_equiv
  _atom_site_type_symbol
  C1       1.0000 0.29356  0.29355  0.11934  Biso   1.000  C
  C2       1.0000 0.29356  0.29355  0.29355  Biso   1.000  C
  C3       1.0000 0.11935  0.29355  0.29355  Biso   1.000  C
  C4       1.0000 0.29356  0.11934  0.29355  Biso   1.000  C
  C5       1.0000 0.70644  0.70645  0.88066  Biso   1.000  C
  C6       1.0000 0.70644  0.70645  0.70645  Biso   1.000  C
  C7       1.0000 0.70644  0.88066  0.70645  Biso   1.000  C
  C8       1.0000 0.88065  0.70645  0.70645  Biso   1.000  C
  C9       1.0000 0.45610  0.45610  0.93590  Biso   1.000  C
  C10      1.0000 0.45610  0.45610  0.15190  Biso   1.000  C
  C11      1.0000 0.93590  0.15190  0.45610  Biso   1.000  C
  C12      1.0000 0.15190  0.93590  0.45610  Biso   1.000  C
  C13      1.0000 0.45610  0.93590  0.15190  Biso   1.000  C
  C14      1.0000 0.45610  0.15190  0.93590  Biso   1.000  C
  C15      1.0000 0.93590  0.45610  0.45610  Biso   1.000  C
  C16      1.0000 0.15190  0.45610  0.45610  Biso   1.000  C
  C17      1.0000 0.45610  0.15190  0.45610  Biso   1.000  C
  C18      1.0000 0.45610  0.93590  0.45610  Biso   1.000  C
  C19      1.0000 0.93590  0.45610  0.15190  Biso   1.000  C
  C20      1.0000 0.15190  0.45610  0.93590  Biso   1.000  C
  C21      1.0000 0.54390  0.54390  0.06410  Biso   1.000  C
  C22      1.0000 0.54390  0.54390  0.84810  Biso   1.000  C
  C23      1.0000 0.84810  0.06410  0.54390  Biso   1.000  C
  C24      1.0000 0.06410  0.84810  0.54390  Biso   1.000  C
  C25      1.0000 0.06410  0.54390  0.84810  Biso   1.000  C
  C26      1.0000 0.84810  0.54390  0.06410  Biso   1.000  C
  C27      1.0000 0.54390  0.06410  0.54390  Biso   1.000  C
  C28      1.0000 0.54390  0.84810  0.54390  Biso   1.000  C
  C29      1.0000 0.84810  0.54390  0.54390  Biso   1.000  C
  C30      1.0000 0.06410  0.54390  0.54390  Biso   1.000  C
  C31      1.0000 0.54390  0.06410  0.84810  Biso   1.000  C
  C32      1.0000 0.54390  0.84810  0.06410  Biso   1.000  C
  C33      1.0000 0.47369  0.47369  0.96285  Biso   1.000  C
  C34      1.0000 0.47369  0.47369  0.08977  Biso   1.000  C
  C35      1.0000 0.96285  0.08977  0.47369  Biso   1.000  C
  C36      1.0000 0.08977  0.96285  0.47369  Biso   1.000  C
  C37      1.0000 0.47369  0.96285  0.08977  Biso   1.000  C
  C38      1.0000 0.47369  0.08977  0.96285  Biso   1.000  C
  C39      1.0000 0.96285  0.47369  0.47369  Biso   1.000  C
  C40      1.0000 0.08977  0.47369  0.47369  Biso   1.000  C
  C41      1.0000 0.47369  0.08977  0.47369  Biso   1.000  C
  C42      1.0000 0.47369  0.96285  0.47369  Biso   1.000  C
  C43      1.0000 0.96285  0.47369  0.08977  Biso   1.000  C
  C44      1.0000 0.08977  0.47369  0.96285  Biso   1.000  C
  C45      1.0000 0.52631  0.52631  0.03715  Biso   1.000  C
  C46      1.0000 0.52631  0.52631  0.91023  Biso   1.000  C
  C47      1.0000 0.91023  0.03715  0.52631  Biso   1.000  C
  C48      1.0000 0.03715  0.91023  0.52631  Biso   1.000  C
  C49      1.0000 0.03715  0.52631  0.91023  Biso   1.000  C
  C50      1.0000 0.91023  0.52631  0.03715  Biso   1.000  C
  C51      1.0000 0.52631  0.03715  0.52631  Biso   1.000  C
  C52      1.0000 0.52631  0.91023  0.52631  Biso   1.000  C
  C53      1.0000 0.91023  0.52631  0.52631  Biso   1.000  C
  C54      1.0000 0.03715  0.52631  0.52631  Biso   1.000  C
  C55      1.0000 0.52631  0.03715  0.91023  Biso   1.000  C
  C56      1.0000 0.52631  0.91023  0.03715  Biso   1.000  C
  C57      1.0000 0.38870  0.38870  0.11130  Biso   1.000  C
  C58      1.0000 0.44610  0.44610  0.05390  Biso   1.000  C
  C59      1.0000 0.11130  0.11130  0.38870  Biso   1.000  C
  C60      1.0000 0.05390  0.05390  0.44610  Biso   1.000  C
  C61      1.0000 0.38870  0.11130  0.11130  Biso   1.000  C
  C62      1.0000 0.44610  0.05390  0.05390  Biso   1.000  C
  C63      1.0000 0.11130  0.38870  0.38870  Biso   1.000  C
  C64      1.0000 0.05390  0.44610  0.44610  Biso   1.000  C
  C65      1.0000 0.38870  0.11130  0.38870  Biso   1.000  C
  C66      1.0000 0.44610  0.05390  0.44610  Biso   1.000  C
  C67      1.0000 0.11130  0.38870  0.11130  Biso   1.000  C
  C68      1.0000 0.05390  0.44610  0.05390  Biso   1.000  C
  C69      1.0000 0.61130  0.61130  0.88870  Biso   1.000  C
  C70      1.0000 0.55390  0.55390  0.94610  Biso   1.000  C
  C71      1.0000 0.88870  0.88870  0.61130  Biso   1.000  C
  C72      1.0000 0.94610  0.94610  0.55390  Biso   1.000  C
  C73      1.0000 0.88870  0.61130  0.88870  Biso   1.000  C
  C74      1.0000 0.94610  0.55390  0.94610  Biso   1.000  C
  C75      1.0000 0.61130  0.88870  0.61130  Biso   1.000  C
  C76      1.0000 0.55390  0.94610  0.55390  Biso   1.000  C
  C77      1.0000 0.88870  0.61130  0.61130  Biso   1.000  C
  C78      1.0000 0.94610  0.55390  0.55390  Biso   1.000  C
  C79      1.0000 0.61130  0.88870  0.88870  Biso   1.000  C
  C80      1.0000 0.55390  0.94610  0.94610  Biso   1.000  C
  C81      1.0000 0.25000  0.25000  0.25000  Biso   1.000  C
  C82      1.0000 0.75000  0.75000  0.75000  Biso   1.000  C
  C83      1.0000 0.36609  0.36609  0.07323  Biso   1.000  C
  C84      1.0000 0.36609  0.36609  0.19459  Biso   1.000  C
  C85      1.0000 0.07323  0.19459  0.36609  Biso   1.000  C
  C86      1.0000 0.19459  0.07323  0.36609  Biso   1.000  C
  C87      1.0000 0.36609  0.07323  0.19459  Biso   1.000  C
  C88      1.0000 0.36609  0.19459  0.07323  Biso   1.000  C
  C89      1.0000 0.07323  0.36609  0.36609  Biso   1.000  C
  C90      1.0000 0.19459  0.36609  0.36609  Biso   1.000  C
  C91      1.0000 0.36609  0.19459  0.36609  Biso   1.000  C
  C92      1.0000 0.36609  0.07323  0.36609  Biso   1.000  C
  C93      1.0000 0.07323  0.36609  0.19459  Biso   1.000  C
  C94      1.0000 0.19459  0.36609  0.07323  Biso   1.000  C
  C95      1.0000 0.63391  0.63391  0.92677  Biso   1.000  C
  C96      1.0000 0.63391  0.63391  0.80541  Biso   1.000  C
  C97      1.0000 0.80541  0.92677  0.63391  Biso   1.000  C
  C98      1.0000 0.92677  0.80541  0.63391  Biso   1.000  C
  C99      1.0000 0.92677  0.63391  0.80541  Biso   1.000  C
  C100     1.0000 0.80541  0.63391  0.92677  Biso   1.000  C
  C101     1.0000 0.63391  0.92677  0.63391  Biso   1.000  C
  C102     1.0000 0.63391  0.80541  0.63391  Biso   1.000  C
  C103     1.0000 0.80541  0.63391  0.63391  Biso   1.000  C
  C104     1.0000 0.92677  0.63391  0.63391  Biso   1.000  C
  C105     1.0000 0.63391  0.92677  0.80541  Biso   1.000  C
  C106     1.0000 0.63391  0.80541  0.92677  Biso   1.000  C
  O1       1.0000 0.49233  0.64414  0.33385  Biso   1.000  O
  O2       1.0000 0.49233  0.64414  0.50668  Biso   1.000  O
  O3       1.0000 0.31950  0.64414  0.50668  Biso   1.000  O
  O4       1.0000 0.49233  0.47132  0.50668  Biso   1.000  O
  O5       1.0000 0.91136  0.06319  0.09855  Biso   1.000  O
  O6       1.0000 0.91136  0.06319  0.92573  Biso   1.000  O
  O7       1.0000 0.91136  0.23601  0.92573  Biso   1.000  O
  O8       1.0000 0.08418  0.06319  0.92573  Biso   1.000  O
  O9       1.0000 0.35604  0.80419  0.15003  Biso   1.000  O
  O10      1.0000 0.65237  0.50786  0.66673  Biso   1.000  O
  O11      1.0000 0.13567  0.80419  0.37040  Biso   1.000  O
  O12      1.0000 0.65237  0.28749  0.66673  Biso   1.000  O
  O13      1.0000 0.35604  0.28749  0.66673  Biso   1.000  O
  O14      1.0000 0.65237  0.80419  0.15003  Biso   1.000  O
  O15      1.0000 0.13567  0.50786  0.66673  Biso   1.000  O
  O16      1.0000 0.65237  0.80419  0.37040  Biso   1.000  O
  O17      1.0000 0.35604  0.80419  0.66673  Biso   1.000  O
  O18      1.0000 0.65237  0.28749  0.37040  Biso   1.000  O
  O19      1.0000 0.13567  0.80419  0.66673  Biso   1.000  O
  O20      1.0000 0.65237  0.50786  0.15003  Biso   1.000  O
  O21      1.0000 0.75131  0.19947  0.28237  Biso   1.000  O
  O22      1.0000 0.04764  0.90313  0.76567  Biso   1.000  O
  O23      1.0000 0.75131  0.41983  0.06200  Biso   1.000  O
  O24      1.0000 0.26801  0.90313  0.76567  Biso   1.000  O
  O25      1.0000 0.26801  0.19947  0.76567  Biso   1.000  O
  O26      1.0000 0.75131  0.90313  0.28237  Biso   1.000  O
  O27      1.0000 0.04764  0.41983  0.76567  Biso   1.000  O
  O28      1.0000 0.75131  0.90313  0.06200  Biso   1.000  O
  O29      1.0000 0.75131  0.19947  0.76567  Biso   1.000  O
  O30      1.0000 0.26801  0.90313  0.06200  Biso   1.000  O
  O31      1.0000 0.75131  0.41983  0.76567  Biso   1.000  O
  O32      1.0000 0.04764  0.90313  0.28237  Biso   1.000  O
  O33      1.0000 0.29295  0.82246  0.17659  Biso   1.000  O
  O34      1.0000 0.67064  0.44477  0.68500  Biso   1.000  O
  O35      1.0000 0.16223  0.82246  0.30731  Biso   1.000  O
  O36      1.0000 0.67064  0.31405  0.68500  Biso   1.000  O
  O37      1.0000 0.29295  0.31405  0.68500  Biso   1.000  O
  O38      1.0000 0.67064  0.82246  0.17659  Biso   1.000  O
  O39      1.0000 0.16223  0.44477  0.68500  Biso   1.000  O
  O40      1.0000 0.67064  0.82246  0.30731  Biso   1.000  O
  O41      1.0000 0.29295  0.82246  0.68500  Biso   1.000  O
  O42      1.0000 0.67064  0.31405  0.30731  Biso   1.000  O
  O43      1.0000 0.16223  0.82246  0.68500  Biso   1.000  O
  O44      1.0000 0.67064  0.44477  0.17659  Biso   1.000  O
  O45      1.0000 0.73304  0.26256  0.25581  Biso   1.000  O
  O46      1.0000 0.11074  0.88487  0.74740  Biso   1.000  O
  O47      1.0000 0.73304  0.39328  0.12510  Biso   1.000  O
  O48      1.0000 0.24146  0.88487  0.74740  Biso   1.000  O
  O49      1.0000 0.24146  0.26256  0.74740  Biso   1.000  O
  O50      1.0000 0.73304  0.88487  0.25581  Biso   1.000  O
  O51      1.0000 0.11074  0.39328  0.74740  Biso   1.000  O
  O52      1.0000 0.73304  0.88487  0.12510  Biso   1.000  O
  O53      1.0000 0.73304  0.26256  0.74740  Biso   1.000  O
  O54      1.0000 0.24146  0.88487  0.12510  Biso   1.000  O
  O55      1.0000 0.73304  0.39328  0.74740  Biso   1.000  O
  O56      1.0000 0.11074  0.88487  0.25581  Biso   1.000  O
  O57      1.0000 0.25446  0.79559  0.26882  Biso   1.000  O
  O58      1.0000 0.31223  0.73783  0.32658  Biso   1.000  O
  O59      1.0000 0.64377  0.40628  0.65813  Biso   1.000  O
  O60      1.0000 0.58600  0.46405  0.60036  Biso   1.000  O
  O61      1.0000 0.25446  0.40628  0.65813  Biso   1.000  O
  O62      1.0000 0.31223  0.46405  0.60036  Biso   1.000  O
  O63      1.0000 0.64377  0.79559  0.26882  Biso   1.000  O
  O64      1.0000 0.58600  0.73783  0.32658  Biso   1.000  O
  O65      1.0000 0.25446  0.79559  0.65813  Biso   1.000  O
  O66      1.0000 0.31223  0.73783  0.60036  Biso   1.000  O
  O67      1.0000 0.64377  0.40628  0.26882  Biso   1.000  O
  O68      1.0000 0.58600  0.46405  0.32658  Biso   1.000  O
  O69      1.0000 0.75992  0.30104  0.16358  Biso   1.000  O
  O70      1.0000 0.81768  0.24328  0.10582  Biso   1.000  O
  O71      1.0000 0.14922  0.91174  0.77428  Biso   1.000  O
  O72      1.0000 0.09146  0.96950  0.83204  Biso   1.000  O
  O73      1.0000 0.14922  0.30104  0.77428  Biso   1.000  O
  O74      1.0000 0.09146  0.24328  0.83204  Biso   1.000  O
  O75      1.0000 0.75992  0.91174  0.16358  Biso   1.000  O
  O76      1.0000 0.81768  0.96950  0.10582  Biso   1.000  O
  O77      1.0000 0.75992  0.30104  0.77428  Biso   1.000  O
  O78      1.0000 0.81768  0.24328  0.83204  Biso   1.000  O
  O79      1.0000 0.14922  0.91174  0.16358  Biso   1.000  O
  O80      1.0000 0.09146  0.96950  0.10582  Biso   1.000  O
  O81      1.0000 0.44912  0.60094  0.46347  Biso   1.000  O
  O82      1.0000 0.95457  0.10639  0.96893  Biso   1.000  O
  O83      1.0000 0.39777  0.71602  0.28466  Biso   1.000  O
  O84      1.0000 0.56420  0.54959  0.57855  Biso   1.000  O
  O85      1.0000 0.27030  0.71602  0.41213  Biso   1.000  O
  O86      1.0000 0.56420  0.42212  0.57855  Biso   1.000  O
  O87      1.0000 0.39777  0.42212  0.57855  Biso   1.000  O
  O88      1.0000 0.56420  0.71602  0.28466  Biso   1.000  O
  O89      1.0000 0.27030  0.54959  0.57855  Biso   1.000  O
  O90      1.0000 0.56420  0.71602  0.41213  Biso   1.000  O
  O91      1.0000 0.39777  0.71602  0.57855  Biso   1.000  O
  O92      1.0000 0.56420  0.42212  0.41213  Biso   1.000  O
  O93      1.0000 0.27030  0.71602  0.57855  Biso   1.000  O
  O94      1.0000 0.56420  0.54959  0.28466  Biso   1.000  O
  O95      1.0000 0.83949  0.15774  0.14775  Biso   1.000  O
  O96      1.0000 0.00591  0.99131  0.85385  Biso   1.000  O
  O97      1.0000 0.83949  0.28521  0.02027  Biso   1.000  O
  O98      1.0000 0.13339  0.99131  0.85385  Biso   1.000  O
  O99      1.0000 0.13339  0.15774  0.85385  Biso   1.000  O
  O100     1.0000 0.83949  0.99131  0.14775  Biso   1.000  O
  O101     1.0000 0.00591  0.28521  0.85385  Biso   1.000  O
  O102     1.0000 0.83949  0.99131  0.02027  Biso   1.000  O
  O103     1.0000 0.83949  0.15774  0.85385  Biso   1.000  O
  O104     1.0000 0.13339  0.99131  0.02027  Biso   1.000  O
  O105     1.0000 0.83949  0.28521  0.85385  Biso   1.000  O
  O106     1.0000 0.00591  0.99131  0.14775  Biso   1.000  O
