data_image0
_cell_length_a       18.2422
_cell_length_b       18.2422
_cell_length_c       18.2422
_cell_angle_alpha    60
_cell_angle_beta     60
_cell_angle_gamma    60

_symmetry_space_group_name_H-M    "P 1"
_symmetry_int_tables_number       1

loop_
  _symmetry_equiv_pos_as_xyz
  'x, y, z'

loop_
  _atom_site_label
  _atom_site_occupancy
  _atom_site_fract_x
  _atom_site_fract_y
  _atom_site_fract_z
  _atom_site_thermal_displace_type
  _atom_site_B_iso_or_equiv
  _atom_site_type_symbol
  Zn1      1.0000 0.29356  0.29355  0.11934  Biso   1.000  Zn
  Zn2      1.0000 0.29356  0.29355  0.29355  Biso   1.000  Zn
  Zn3      1.0000 0.11935  0.29355  0.29355  Biso   1.000  Zn
  Zn4      1.0000 0.29356  0.11934  0.29355  Biso   1.000  Zn
  Zn5      1.0000 0.70644  0.70645  0.88066  Biso   1.000  Zn
  Zn6      1.0000 0.70644  0.70645  0.70645  Biso   1.000  Zn
  Zn7      1.0000 0.70644  0.88066  0.70645  Biso   1.000  Zn
  Zn8      1.0000 0.88065  0.70645  0.70645  Biso   1.000  Zn
  H1       1.0000 0.45610  0.45610  0.93590  Biso   1.000  H
  H2       1.0000 0.45610  0.45610  0.15190  Biso   1.000  H
  H3       1.0000 0.93590  0.15190  0.45610  Biso   1.000  H
  H4       1.0000 0.15190  0.93590  0.45610  Biso   1.000  H
  H5       1.0000 0.45610  0.93590  0.15190  Biso   1.000  H
  H6       1.0000 0.45610  0.15190  0.93590  Biso   1.000  H
  H7       1.0000 0.93590  0.45610  0.45610  Biso   1.000  H
  H8       1.0000 0.15190  0.45610  0.45610  Biso   1.000  H
  H9       1.0000 0.45610  0.15190  0.45610  Biso   1.000  H
  H10      1.0000 0.45610  0.93590  0.45610  Biso   1.000  H
  H11      1.0000 0.93590  0.45610  0.15190  Biso   1.000  H
  H12      1.0000 0.15190  0.45610  0.93590  Biso   1.000  H
  H13      1.0000 0.54390  0.54390  0.06410  Biso   1.000  H
  H14      1.0000 0.54390  0.54390  0.84810  Biso   1.000  H
  H15      1.0000 0.84810  0.06410  0.54390  Biso   1.000  H
  H16      1.0000 0.06410  0.84810  0.54390  Biso   1.000  H
  H17      1.0000 0.06410  0.54390  0.84810  Biso   1.000  H
  H18      1.0000 0.84810  0.54390  0.06410  Biso   1.000  H
  H19      1.0000 0.54390  0.06410  0.54390  Biso   1.000  H
  H20      1.0000 0.54390  0.84810  0.54390  Biso   1.000  H
  H21      1.0000 0.84810  0.54390  0.54390  Biso   1.000  H
  H22      1.0000 0.06410  0.54390  0.54390  Biso   1.000  H
  H23      1.0000 0.54390  0.06410  0.84810  Biso   1.000  H
  H24      1.0000 0.54390  0.84810  0.06410  Biso   1.000  H
  C1       1.0000 0.47369  0.47369  0.96285  Biso   1.000  C
  C2       1.0000 0.47369  0.47369  0.08977  Biso   1.000  C
  C3       1.0000 0.96285  0.08977  0.47369  Biso   1.000  C
  C4       1.0000 0.08977  0.96285  0.47369  Biso   1.000  C
  C5       1.0000 0.47369  0.96285  0.08977  Biso   1.000  C
  C6       1.0000 0.47369  0.08977  0.96285  Biso   1.000  C
  C7       1.0000 0.96285  0.47369  0.47369  Biso   1.000  C
  C8       1.0000 0.08977  0.47369  0.47369  Biso   1.000  C
  C9       1.0000 0.47369  0.08977  0.47369  Biso   1.000  C
  C10      1.0000 0.47369  0.96285  0.47369  Biso   1.000  C
  C11      1.0000 0.96285  0.47369  0.08977  Biso   1.000  C
  C12      1.0000 0.08977  0.47369  0.96285  Biso   1.000  C
  C13      1.0000 0.52631  0.52631  0.03715  Biso   1.000  C
  C14      1.0000 0.52631  0.52631  0.91023  Biso   1.000  C
  C15      1.0000 0.91023  0.03715  0.52631  Biso   1.000  C
  C16      1.0000 0.03715  0.91023  0.52631  Biso   1.000  C
  C17      1.0000 0.03715  0.52631  0.91023  Biso   1.000  C
  C18      1.0000 0.91023  0.52631  0.03715  Biso   1.000  C
  C19      1.0000 0.52631  0.03715  0.52631  Biso   1.000  C
  C20      1.0000 0.52631  0.91023  0.52631  Biso   1.000  C
  C21      1.0000 0.91023  0.52631  0.52631  Biso   1.000  C
  C22      1.0000 0.03715  0.52631  0.52631  Biso   1.000  C
  C23      1.0000 0.52631  0.03715  0.91023  Biso   1.000  C
  C24      1.0000 0.52631  0.91023  0.03715  Biso   1.000  C
  C25      1.0000 0.38870  0.38870  0.11130  Biso   1.000  C
  C26      1.0000 0.44610  0.44610  0.05390  Biso   1.000  C
  C27      1.0000 0.11130  0.11130  0.38870  Biso   1.000  C
  C28      1.0000 0.05390  0.05390  0.44610  Biso   1.000  C
  C29      1.0000 0.38870  0.11130  0.11130  Biso   1.000  C
  C30      1.0000 0.44610  0.05390  0.05390  Biso   1.000  C
  C31      1.0000 0.11130  0.38870  0.38870  Biso   1.000  C
  C32      1.0000 0.05390  0.44610  0.44610  Biso   1.000  C
  C33      1.0000 0.38870  0.11130  0.38870  Biso   1.000  C
  C34      1.0000 0.44610  0.05390  0.44610  Biso   1.000  C
  C35      1.0000 0.11130  0.38870  0.11130  Biso   1.000  C
  C36      1.0000 0.05390  0.44610  0.05390  Biso   1.000  C
  C37      1.0000 0.61130  0.61130  0.88870  Biso   1.000  C
  C38      1.0000 0.55390  0.55390  0.94610  Biso   1.000  C
  C39      1.0000 0.88870  0.88870  0.61130  Biso   1.000  C
  C40      1.0000 0.94610  0.94610  0.55390  Biso   1.000  C
  C41      1.0000 0.88870  0.61130  0.88870  Biso   1.000  C
  C42      1.0000 0.94610  0.55390  0.94610  Biso   1.000  C
  C43      1.0000 0.61130  0.88870  0.61130  Biso   1.000  C
  C44      1.0000 0.55390  0.94610  0.55390  Biso   1.000  C
  C45      1.0000 0.88870  0.61130  0.61130  Biso   1.000  C
  C46      1.0000 0.94610  0.55390  0.55390  Biso   1.000  C
  C47      1.0000 0.61130  0.88870  0.88870  Biso   1.000  C
  C48      1.0000 0.55390  0.94610  0.94610  Biso   1.000  C
  O1       1.0000 0.25000  0.25000  0.25000  Biso   1.000  O
  O2       1.0000 0.75000  0.75000  0.75000  Biso   1.000  O
  O3       1.0000 0.36609  0.36609  0.07323  Biso   1.000  O
  O4       1.0000 0.36609  0.36609  0.19459  Biso   1.000  O
  O5       1.0000 0.07323  0.19459  0.36609  Biso   1.000  O
  O6       1.0000 0.19459  0.07323  0.36609  Biso   1.000  O
  O7       1.0000 0.36609  0.07323  0.19459  Biso   1.000  O
  O8       1.0000 0.36609  0.19459  0.07323  Biso   1.000  O
  O9       1.0000 0.07323  0.36609  0.36609  Biso   1.000  O
  O10      1.0000 0.19459  0.36609  0.36609  Biso   1.000  O
  O11      1.0000 0.36609  0.19459  0.36609  Biso   1.000  O
  O12      1.0000 0.36609  0.07323  0.36609  Biso   1.000  O
  O13      1.0000 0.07323  0.36609  0.19459  Biso   1.000  O
  O14      1.0000 0.19459  0.36609  0.07323  Biso   1.000  O
  O15      1.0000 0.63391  0.63391  0.92677  Biso   1.000  O
  O16      1.0000 0.63391  0.63391  0.80541  Biso   1.000  O
  O17      1.0000 0.80541  0.92677  0.63391  Biso   1.000  O
  O18      1.0000 0.92677  0.80541  0.63391  Biso   1.000  O
  O19      1.0000 0.92677  0.63391  0.80541  Biso   1.000  O
  O20      1.0000 0.80541  0.63391  0.92677  Biso   1.000  O
  O21      1.0000 0.63391  0.92677  0.63391  Biso   1.000  O
  O22      1.0000 0.63391  0.80541  0.63391  Biso   1.000  O
  O23      1.0000 0.80541  0.63391  0.63391  Biso   1.000  O
  O24      1.0000 0.92677  0.63391  0.63391  Biso   1.000  O
  O25      1.0000 0.63391  0.92677  0.80541  Biso   1.000  O
  O26      1.0000 0.63391  0.80541  0.92677  Biso   1.000  O
  Zn9      1.0000 0.88990  0.75936  0.43275  Biso   1.000  Zn
  Zn10     1.0000 0.06398  0.75936  0.25867  Biso   1.000  Zn
  Zn11     1.0000 0.88990  0.75936  0.25867  Biso   1.000  Zn
  Zn12     1.0000 0.88990  0.93343  0.25867  Biso   1.000  Zn
  Zn13     1.0000 0.47461  0.34718  0.67241  Biso   1.000  Zn
  Zn14     1.0000 0.30053  0.34718  0.84649  Biso   1.000  Zn
  Zn15     1.0000 0.47461  0.17310  0.84649  Biso   1.000  Zn
  Zn16     1.0000 0.47461  0.34718  0.84649  Biso   1.000  Zn
  H25      1.0000 0.02982  0.59750  0.61656  Biso   1.000  H
  H26      1.0000 0.24624  0.59750  0.40014  Biso   1.000  H
  H27      1.0000 0.72649  0.90083  0.09681  Biso   1.000  H
  H28      1.0000 0.72649  0.11725  0.09681  Biso   1.000  H
  H29      1.0000 0.72649  0.11725  0.40014  Biso   1.000  H
  H30      1.0000 0.72649  0.90083  0.61656  Biso   1.000  H
  H31      1.0000 0.02982  0.59750  0.09681  Biso   1.000  H
  H32      1.0000 0.24624  0.59750  0.09681  Biso   1.000  H
  H33      1.0000 0.24624  0.90083  0.09681  Biso   1.000  H
  H34      1.0000 0.02982  0.11725  0.09681  Biso   1.000  H
  H35      1.0000 0.72649  0.59750  0.40014  Biso   1.000  H
  H36      1.0000 0.72649  0.59750  0.61656  Biso   1.000  H
  H37      1.0000 0.33470  0.50904  0.48860  Biso   1.000  H
  H38      1.0000 0.11828  0.50904  0.70502  Biso   1.000  H
  H39      1.0000 0.63803  0.98929  0.00835  Biso   1.000  H
  H40      1.0000 0.63803  0.20571  0.00835  Biso   1.000  H
  H41      1.0000 0.63803  0.50904  0.70502  Biso   1.000  H
  H42      1.0000 0.63803  0.50904  0.48860  Biso   1.000  H
  H43      1.0000 0.33470  0.98929  0.00835  Biso   1.000  H
  H44      1.0000 0.11828  0.20571  0.00835  Biso   1.000  H
  H45      1.0000 0.11828  0.50904  0.00835  Biso   1.000  H
  H46      1.0000 0.33470  0.50904  0.00835  Biso   1.000  H
  H47      1.0000 0.63803  0.98929  0.70502  Biso   1.000  H
  H48      1.0000 0.63803  0.20571  0.48860  Biso   1.000  H
  C49      1.0000 0.09198  0.57983  0.58974  Biso   1.000  C
  C50      1.0000 0.21942  0.57983  0.46230  Biso   1.000  C
  C51      1.0000 0.70882  0.96299  0.07914  Biso   1.000  C
  C52      1.0000 0.70882  0.09043  0.07914  Biso   1.000  C
  C53      1.0000 0.70882  0.09043  0.46230  Biso   1.000  C
  C54      1.0000 0.70882  0.96299  0.58974  Biso   1.000  C
  C55      1.0000 0.09198  0.57983  0.07914  Biso   1.000  C
  C56      1.0000 0.21942  0.57983  0.07914  Biso   1.000  C
  C57      1.0000 0.21942  0.96299  0.07914  Biso   1.000  C
  C58      1.0000 0.09198  0.09043  0.07914  Biso   1.000  C
  C59      1.0000 0.70882  0.57983  0.46230  Biso   1.000  C
  C60      1.0000 0.70882  0.57983  0.58974  Biso   1.000  C
  C61      1.0000 0.27254  0.52671  0.51542  Biso   1.000  C
  C62      1.0000 0.14510  0.52671  0.64286  Biso   1.000  C
  C63      1.0000 0.65570  0.01611  0.02602  Biso   1.000  C
  C64      1.0000 0.65570  0.14355  0.02602  Biso   1.000  C
  C65      1.0000 0.65570  0.52671  0.64286  Biso   1.000  C
  C66      1.0000 0.65570  0.52671  0.51542  Biso   1.000  C
  C67      1.0000 0.27254  0.01611  0.02602  Biso   1.000  C
  C68      1.0000 0.14510  0.14355  0.02602  Biso   1.000  C
  C69      1.0000 0.14510  0.52671  0.02602  Biso   1.000  C
  C70      1.0000 0.27254  0.52671  0.02602  Biso   1.000  C
  C71      1.0000 0.65570  0.01611  0.64286  Biso   1.000  C
  C72      1.0000 0.65570  0.14355  0.51542  Biso   1.000  C
  C73      1.0000 0.07171  0.66459  0.44048  Biso   1.000  C
  C74      1.0000 0.12922  0.60708  0.49799  Biso   1.000  C
  C75      1.0000 0.79514  0.94116  0.16391  Biso   1.000  C
  C76      1.0000 0.73763  0.99867  0.10640  Biso   1.000  C
  C77      1.0000 0.79514  0.94116  0.44048  Biso   1.000  C
  C78      1.0000 0.73763  0.99867  0.49799  Biso   1.000  C
  C79      1.0000 0.07171  0.66459  0.16391  Biso   1.000  C
  C80      1.0000 0.12922  0.60708  0.10640  Biso   1.000  C
  C81      1.0000 0.07171  0.94116  0.16391  Biso   1.000  C
  C82      1.0000 0.12922  0.99867  0.10640  Biso   1.000  C
  C83      1.0000 0.79514  0.66459  0.44048  Biso   1.000  C
  C84      1.0000 0.73763  0.60708  0.49799  Biso   1.000  C
  C85      1.0000 0.29281  0.44194  0.66469  Biso   1.000  C
  C86      1.0000 0.23530  0.49945  0.60718  Biso   1.000  C
  C87      1.0000 0.56938  0.16537  0.94125  Biso   1.000  C
  C88      1.0000 0.62689  0.10786  0.99876  Biso   1.000  C
  C89      1.0000 0.56938  0.44194  0.66469  Biso   1.000  C
  C90      1.0000 0.62689  0.49945  0.60718  Biso   1.000  C
  C91      1.0000 0.29281  0.16537  0.94125  Biso   1.000  C
  C92      1.0000 0.23530  0.10786  0.99876  Biso   1.000  C
  C93      1.0000 0.29281  0.44194  0.94125  Biso   1.000  C
  C94      1.0000 0.23530  0.49945  0.99876  Biso   1.000  C
  C95      1.0000 0.56938  0.16537  0.66469  Biso   1.000  C
  C96      1.0000 0.62689  0.10786  0.60718  Biso   1.000  C
  O27      1.0000 0.93342  0.80288  0.30219  Biso   1.000  O
  O28      1.0000 0.43109  0.30366  0.80297  Biso   1.000  O
  O29      1.0000 0.98876  0.68696  0.47870  Biso   1.000  O
  O30      1.0000 0.10993  0.68696  0.35753  Biso   1.000  O
  O31      1.0000 0.81751  0.85821  0.18627  Biso   1.000  O
  O32      1.0000 0.81751  0.97938  0.18627  Biso   1.000  O
  O33      1.0000 0.81751  0.97938  0.35753  Biso   1.000  O
  O34      1.0000 0.81751  0.85821  0.47870  Biso   1.000  O
  O35      1.0000 0.98876  0.68696  0.18627  Biso   1.000  O
  O36      1.0000 0.10993  0.68696  0.18627  Biso   1.000  O
  O37      1.0000 0.10993  0.85821  0.18627  Biso   1.000  O
  O38      1.0000 0.98876  0.97938  0.18627  Biso   1.000  O
  O39      1.0000 0.81751  0.68696  0.35753  Biso   1.000  O
  O40      1.0000 0.81751  0.68696  0.47870  Biso   1.000  O
  O41      1.0000 0.37576  0.41958  0.62647  Biso   1.000  O
  O42      1.0000 0.25459  0.41958  0.74764  Biso   1.000  O
  O43      1.0000 0.54701  0.12715  0.91889  Biso   1.000  O
  O44      1.0000 0.54701  0.24832  0.91889  Biso   1.000  O
  O45      1.0000 0.54701  0.41958  0.74764  Biso   1.000  O
  O46      1.0000 0.54701  0.41958  0.62647  Biso   1.000  O
  O47      1.0000 0.37576  0.12715  0.91889  Biso   1.000  O
  O48      1.0000 0.25459  0.24832  0.91889  Biso   1.000  O
  O49      1.0000 0.25459  0.41958  0.91889  Biso   1.000  O
  O50      1.0000 0.37576  0.41958  0.91889  Biso   1.000  O
  O51      1.0000 0.54701  0.12715  0.74764  Biso   1.000  O
  O52      1.0000 0.54701  0.24832  0.62647  Biso   1.000  O
