data_image0
_cell_length_a       18.2789
_cell_length_b       18.2789
_cell_length_c       18.2789
_cell_angle_alpha    60
_cell_angle_beta     60
_cell_angle_gamma    60

_symmetry_space_group_name_H-M    "P 1"
_symmetry_int_tables_number       1

loop_
  _symmetry_equiv_pos_as_xyz
  'x, y, z'

loop_
  _atom_site_label
  _atom_site_occupancy
  _atom_site_fract_x
  _atom_site_fract_y
  _atom_site_fract_z
  _atom_site_thermal_displace_type
  _atom_site_B_iso_or_equiv
  _atom_site_type_symbol
  Zn1      1.0000 0.29348  0.29347  0.11958  Biso   1.000  Zn
  Zn2      1.0000 0.29348  0.29347  0.29347  Biso   1.000  Zn
  Zn3      1.0000 0.11959  0.29347  0.29347  Biso   1.000  Zn
  Zn4      1.0000 0.29348  0.11958  0.29347  Biso   1.000  Zn
  Zn5      1.0000 0.70652  0.70653  0.88042  Biso   1.000  Zn
  Zn6      1.0000 0.70652  0.70653  0.70653  Biso   1.000  Zn
  Zn7      1.0000 0.70652  0.88042  0.70653  Biso   1.000  Zn
  Zn8      1.0000 0.88041  0.70653  0.70653  Biso   1.000  Zn
  H1       1.0000 0.45520  0.45520  0.93520  Biso   1.000  H
  H2       1.0000 0.45520  0.45520  0.15440  Biso   1.000  H
  H3       1.0000 0.93520  0.15440  0.45520  Biso   1.000  H
  H4       1.0000 0.15440  0.93520  0.45520  Biso   1.000  H
  H5       1.0000 0.45520  0.93520  0.15440  Biso   1.000  H
  H6       1.0000 0.45520  0.15440  0.93520  Biso   1.000  H
  H7       1.0000 0.93520  0.45520  0.45520  Biso   1.000  H
  H8       1.0000 0.15440  0.45520  0.45520  Biso   1.000  H
  H9       1.0000 0.45520  0.15440  0.45520  Biso   1.000  H
  H10      1.0000 0.45520  0.93520  0.45520  Biso   1.000  H
  H11      1.0000 0.93520  0.45520  0.15440  Biso   1.000  H
  H12      1.0000 0.15440  0.45520  0.93520  Biso   1.000  H
  H13      1.0000 0.54480  0.54480  0.06480  Biso   1.000  H
  H14      1.0000 0.54480  0.54480  0.84560  Biso   1.000  H
  H15      1.0000 0.84560  0.06480  0.54480  Biso   1.000  H
  H16      1.0000 0.06480  0.84560  0.54480  Biso   1.000  H
  H17      1.0000 0.06480  0.54480  0.84560  Biso   1.000  H
  H18      1.0000 0.84560  0.54480  0.06480  Biso   1.000  H
  H19      1.0000 0.54480  0.06480  0.54480  Biso   1.000  H
  H20      1.0000 0.54480  0.84560  0.54480  Biso   1.000  H
  H21      1.0000 0.84560  0.54480  0.54480  Biso   1.000  H
  H22      1.0000 0.06480  0.54480  0.54480  Biso   1.000  H
  H23      1.0000 0.54480  0.06480  0.84560  Biso   1.000  H
  H24      1.0000 0.54480  0.84560  0.06480  Biso   1.000  H
  C1       1.0000 0.47338  0.47338  0.96214  Biso   1.000  C
  C2       1.0000 0.47338  0.47338  0.09110  Biso   1.000  C
  C3       1.0000 0.96214  0.09110  0.47338  Biso   1.000  C
  C4       1.0000 0.09110  0.96214  0.47338  Biso   1.000  C
  C5       1.0000 0.47338  0.96214  0.09110  Biso   1.000  C
  C6       1.0000 0.47338  0.09110  0.96214  Biso   1.000  C
  C7       1.0000 0.96214  0.47338  0.47338  Biso   1.000  C
  C8       1.0000 0.09110  0.47338  0.47338  Biso   1.000  C
  C9       1.0000 0.47338  0.09110  0.47338  Biso   1.000  C
  C10      1.0000 0.47338  0.96214  0.47338  Biso   1.000  C
  C11      1.0000 0.96214  0.47338  0.09110  Biso   1.000  C
  C12      1.0000 0.09110  0.47338  0.96214  Biso   1.000  C
  C13      1.0000 0.52662  0.52662  0.03786  Biso   1.000  C
  C14      1.0000 0.52662  0.52662  0.90890  Biso   1.000  C
  C15      1.0000 0.90890  0.03786  0.52662  Biso   1.000  C
  C16      1.0000 0.03786  0.90890  0.52662  Biso   1.000  C
  C17      1.0000 0.03786  0.52662  0.90890  Biso   1.000  C
  C18      1.0000 0.90890  0.52662  0.03786  Biso   1.000  C
  C19      1.0000 0.52662  0.03786  0.52662  Biso   1.000  C
  C20      1.0000 0.52662  0.90890  0.52662  Biso   1.000  C
  C21      1.0000 0.90890  0.52662  0.52662  Biso   1.000  C
  C22      1.0000 0.03786  0.52662  0.52662  Biso   1.000  C
  C23      1.0000 0.52662  0.03786  0.90890  Biso   1.000  C
  C24      1.0000 0.52662  0.90890  0.03786  Biso   1.000  C
  C25      1.0000 0.38853  0.38853  0.11147  Biso   1.000  C
  C26      1.0000 0.44615  0.44615  0.05385  Biso   1.000  C
  C27      1.0000 0.11147  0.11147  0.38853  Biso   1.000  C
  C28      1.0000 0.05385  0.05385  0.44615  Biso   1.000  C
  C29      1.0000 0.38853  0.11147  0.11147  Biso   1.000  C
  C30      1.0000 0.44615  0.05385  0.05385  Biso   1.000  C
  C31      1.0000 0.11147  0.38853  0.38853  Biso   1.000  C
  C32      1.0000 0.05385  0.44615  0.44615  Biso   1.000  C
  C33      1.0000 0.38853  0.11147  0.38853  Biso   1.000  C
  C34      1.0000 0.44615  0.05385  0.44615  Biso   1.000  C
  C35      1.0000 0.11147  0.38853  0.11147  Biso   1.000  C
  C36      1.0000 0.05385  0.44615  0.05385  Biso   1.000  C
  C37      1.0000 0.61147  0.61147  0.88853  Biso   1.000  C
  C38      1.0000 0.55385  0.55385  0.94615  Biso   1.000  C
  C39      1.0000 0.88853  0.88853  0.61147  Biso   1.000  C
  C40      1.0000 0.94615  0.94615  0.55385  Biso   1.000  C
  C41      1.0000 0.88853  0.61147  0.88853  Biso   1.000  C
  C42      1.0000 0.94615  0.55385  0.94615  Biso   1.000  C
  C43      1.0000 0.61147  0.88853  0.61147  Biso   1.000  C
  C44      1.0000 0.55385  0.94615  0.55385  Biso   1.000  C
  C45      1.0000 0.88853  0.61147  0.61147  Biso   1.000  C
  C46      1.0000 0.94615  0.55385  0.55385  Biso   1.000  C
  C47      1.0000 0.61147  0.88853  0.88853  Biso   1.000  C
  C48      1.0000 0.55385  0.94615  0.94615  Biso   1.000  C
  O1       1.0000 0.25000  0.25000  0.25000  Biso   1.000  O
  O2       1.0000 0.75000  0.75000  0.75000  Biso   1.000  O
  O3       1.0000 0.36624  0.36624  0.07286  Biso   1.000  O
  O4       1.0000 0.36624  0.36624  0.19466  Biso   1.000  O
  O5       1.0000 0.07286  0.19466  0.36624  Biso   1.000  O
  O6       1.0000 0.19466  0.07286  0.36624  Biso   1.000  O
  O7       1.0000 0.36624  0.07286  0.19466  Biso   1.000  O
  O8       1.0000 0.36624  0.19466  0.07286  Biso   1.000  O
  O9       1.0000 0.07286  0.36624  0.36624  Biso   1.000  O
  O10      1.0000 0.19466  0.36624  0.36624  Biso   1.000  O
  O11      1.0000 0.36624  0.19466  0.36624  Biso   1.000  O
  O12      1.0000 0.36624  0.07286  0.36624  Biso   1.000  O
  O13      1.0000 0.07286  0.36624  0.19466  Biso   1.000  O
  O14      1.0000 0.19466  0.36624  0.07286  Biso   1.000  O
  O15      1.0000 0.63376  0.63376  0.92714  Biso   1.000  O
  O16      1.0000 0.63376  0.63376  0.80534  Biso   1.000  O
  O17      1.0000 0.80534  0.92714  0.63376  Biso   1.000  O
  O18      1.0000 0.92714  0.80534  0.63376  Biso   1.000  O
  O19      1.0000 0.92714  0.63376  0.80534  Biso   1.000  O
  O20      1.0000 0.80534  0.63376  0.92714  Biso   1.000  O
  O21      1.0000 0.63376  0.92714  0.63376  Biso   1.000  O
  O22      1.0000 0.63376  0.80534  0.63376  Biso   1.000  O
  O23      1.0000 0.80534  0.63376  0.63376  Biso   1.000  O
  O24      1.0000 0.92714  0.63376  0.63376  Biso   1.000  O
  O25      1.0000 0.63376  0.92714  0.80534  Biso   1.000  O
  O26      1.0000 0.63376  0.80534  0.92714  Biso   1.000  O
  Zn9      1.0000 0.17183  0.97159  0.86981  Biso   1.000  Zn
  Zn10     1.0000 0.58618  0.38592  0.45552  Biso   1.000  Zn
  Zn11     1.0000 0.41234  0.55976  0.45552  Biso   1.000  Zn
  Zn12     1.0000 0.99800  0.14543  0.86981  Biso   1.000  Zn
  Zn13     1.0000 0.99780  0.97140  0.04380  Biso   1.000  Zn
  Zn14     1.0000 0.99793  0.97152  0.86960  Biso   1.000  Zn
  Zn15     1.0000 0.58638  0.55996  0.28153  Biso   1.000  Zn
  Zn16     1.0000 0.58625  0.55983  0.45573  Biso   1.000  Zn
  H25      1.0000 0.83577  0.33079  0.01080  Biso   1.000  H
  H26      1.0000 0.83266  0.11233  0.22409  Biso   1.000  H
  H27      1.0000 0.83937  0.32881  0.70915  Biso   1.000  H
  H28      1.0000 0.83887  0.11116  0.70387  Biso   1.000  H
  H29      1.0000 0.35633  0.11176  0.71095  Biso   1.000  H
  H30      1.0000 0.22696  0.72200  0.31453  Biso   1.000  H
  H31      1.0000 0.44544  0.72510  0.10124  Biso   1.000  H
  H32      1.0000 0.22894  0.71840  0.61618  Biso   1.000  H
  H33      1.0000 0.44661  0.71889  0.62146  Biso   1.000  H
  H34      1.0000 0.44601  0.20144  0.61438  Biso   1.000  H
  H35      1.0000 0.74841  0.20056  0.31453  Biso   1.000  H
  H36      1.0000 0.75152  0.41902  0.10124  Biso   1.000  H
  H37      1.0000 0.74480  0.20254  0.61618  Biso   1.000  H
  H38      1.0000 0.74531  0.42019  0.62146  Biso   1.000  H
  H39      1.0000 0.22785  0.41959  0.61438  Biso   1.000  H
  H40      1.0000 0.35721  0.80935  0.01080  Biso   1.000  H
  H41      1.0000 0.13873  0.80625  0.22409  Biso   1.000  H
  H42      1.0000 0.35524  0.81296  0.70915  Biso   1.000  H
  H43      1.0000 0.13757  0.81246  0.70387  Biso   1.000  H
  H44      1.0000 0.13817  0.32991  0.71095  Biso   1.000  H
  H45      1.0000 0.83706  0.81065  0.01010  Biso   1.000  H
  H46      1.0000 0.83436  0.80795  0.22798  Biso   1.000  H
  H47      1.0000 0.74712  0.72070  0.31523  Biso   1.000  H
  H48      1.0000 0.74982  0.72341  0.09735  Biso   1.000  H
  C49      1.0000 0.90355  0.15511  0.04939  Biso   1.000  C
  C50      1.0000 0.84493  0.21194  0.10962  Biso   1.000  C
  C51      1.0000 0.81892  0.30437  0.07292  Biso   1.000  C
  C52      1.0000 0.81711  0.17435  0.19856  Biso   1.000  C
  C53      1.0000 0.90397  0.15393  0.77357  Biso   1.000  C
  C54      1.0000 0.84824  0.20947  0.71683  Biso   1.000  C
  C55      1.0000 0.82053  0.30319  0.69170  Biso   1.000  C
  C56      1.0000 0.82013  0.17298  0.68831  Biso   1.000  C
  C57      1.0000 0.33011  0.17368  0.69150  Biso   1.000  C
  C58      1.0000 0.40266  0.65421  0.27594  Biso   1.000  C
  C59      1.0000 0.34584  0.71283  0.21571  Biso   1.000  C
  C60      1.0000 0.25339  0.73885  0.25241  Biso   1.000  C
  C61      1.0000 0.38343  0.74065  0.12677  Biso   1.000  C
  C62      1.0000 0.40384  0.65379  0.55176  Biso   1.000  C
  C63      1.0000 0.34831  0.70952  0.60850  Biso   1.000  C
  C64      1.0000 0.25456  0.73724  0.63363  Biso   1.000  C
  C65      1.0000 0.38479  0.73764  0.63702  Biso   1.000  C
  C66      1.0000 0.38409  0.22767  0.63383  Biso   1.000  C
  C67      1.0000 0.68062  0.37624  0.27594  Biso   1.000  C
  C68      1.0000 0.73925  0.31941  0.21571  Biso   1.000  C
  C69      1.0000 0.76526  0.22699  0.25241  Biso   1.000  C
  C70      1.0000 0.76707  0.35701  0.12677  Biso   1.000  C
  C71      1.0000 0.68021  0.37742  0.55176  Biso   1.000  C
  C72      1.0000 0.73594  0.32189  0.60850  Biso   1.000  C
  C73      1.0000 0.76364  0.22816  0.63363  Biso   1.000  C
  C74      1.0000 0.76405  0.35838  0.63702  Biso   1.000  C
  C75      1.0000 0.25407  0.35768  0.63383  Biso   1.000  C
  C76      1.0000 0.18151  0.87715  0.04939  Biso   1.000  C
  C77      1.0000 0.23834  0.81852  0.10962  Biso   1.000  C
  C78      1.0000 0.33079  0.79250  0.07292  Biso   1.000  C
  C79      1.0000 0.20075  0.79070  0.19856  Biso   1.000  C
  C80      1.0000 0.18033  0.87756  0.77357  Biso   1.000  C
  C81      1.0000 0.23587  0.82183  0.71683  Biso   1.000  C
  C82      1.0000 0.32961  0.79412  0.69170  Biso   1.000  C
  C83      1.0000 0.19938  0.79372  0.68831  Biso   1.000  C
  C84      1.0000 0.20008  0.30369  0.69150  Biso   1.000  C
  C85      1.0000 0.90186  0.87545  0.05597  Biso   1.000  C
  C86      1.0000 0.84593  0.81952  0.10882  Biso   1.000  C
  C87      1.0000 0.81941  0.79300  0.07192  Biso   1.000  C
  C88      1.0000 0.81701  0.79060  0.20056  Biso   1.000  C
  C89      1.0000 0.17744  0.15104  0.77876  Biso   1.000  C
  C90      1.0000 0.23746  0.21106  0.71693  Biso   1.000  C
  C91      1.0000 0.68232  0.65590  0.26936  Biso   1.000  C
  C92      1.0000 0.73825  0.71184  0.21651  Biso   1.000  C
  C93      1.0000 0.76477  0.73835  0.25341  Biso   1.000  C
  C94      1.0000 0.76717  0.74075  0.12477  Biso   1.000  C
  C95      1.0000 0.40674  0.38031  0.54658  Biso   1.000  C
  C96      1.0000 0.34672  0.32029  0.60840  Biso   1.000  C
  O27      1.0000 0.92359  0.06967  0.09276  Biso   1.000  O
  O28      1.0000 0.92599  0.19550  0.96692  Biso   1.000  O
  O29      1.0000 0.92331  0.06859  0.79880  Biso   1.000  O
  O30      1.0000 0.92550  0.19401  0.79601  Biso   1.000  O
  O31      1.0000 0.21971  0.06829  0.79830  Biso   1.000  O
  O32      1.0000 0.48811  0.63417  0.23257  Biso   1.000  O
  O33      1.0000 0.36228  0.63177  0.35841  Biso   1.000  O
  O34      1.0000 0.48919  0.63445  0.52653  Biso   1.000  O
  O35      1.0000 0.36377  0.63226  0.52932  Biso   1.000  O
  O36      1.0000 0.48949  0.33804  0.52703  Biso   1.000  O
  O37      1.0000 0.66059  0.46169  0.23257  Biso   1.000  O
  O38      1.0000 0.65819  0.33586  0.35841  Biso   1.000  O
  O39      1.0000 0.66087  0.46277  0.52653  Biso   1.000  O
  O40      1.0000 0.65868  0.33734  0.52932  Biso   1.000  O
  O41      1.0000 0.36446  0.46307  0.52703  Biso   1.000  O
  O42      1.0000 0.09607  0.89719  0.09276  Biso   1.000  O
  O43      1.0000 0.22190  0.89959  0.96692  Biso   1.000  O
  O44      1.0000 0.09499  0.89690  0.79880  Biso   1.000  O
  O45      1.0000 0.22041  0.89910  0.79601  Biso   1.000  O
  O46      1.0000 0.09469  0.19331  0.79830  Biso   1.000  O
  O47      1.0000 0.04124  0.01484  0.91357  Biso   1.000  O
  O48      1.0000 0.92499  0.89858  0.09177  Biso   1.000  O
  O49      1.0000 0.92340  0.89699  0.97161  Biso   1.000  O
  O50      1.0000 0.54293  0.51651  0.41176  Biso   1.000  O
  O51      1.0000 0.65919  0.63277  0.23356  Biso   1.000  O
  O52      1.0000 0.66078  0.63436  0.35372  Biso   1.000  O
