data_image0
_cell_length_a       18.2965
_cell_length_b       18.2965
_cell_length_c       18.2965
_cell_angle_alpha    60
_cell_angle_beta     60
_cell_angle_gamma    60

_symmetry_space_group_name_H-M    "P 1"
_symmetry_int_tables_number       1

loop_
  _symmetry_equiv_pos_as_xyz
  'x, y, z'

loop_
  _atom_site_label
  _atom_site_occupancy
  _atom_site_fract_x
  _atom_site_fract_y
  _atom_site_fract_z
  _atom_site_thermal_displace_type
  _atom_site_B_iso_or_equiv
  _atom_site_type_symbol
  C1       1.0000 0.29344  0.29343  0.11970  Biso   1.000  C
  C2       1.0000 0.29344  0.29343  0.29343  Biso   1.000  C
  C3       1.0000 0.11971  0.29343  0.29343  Biso   1.000  C
  C4       1.0000 0.29344  0.11970  0.29343  Biso   1.000  C
  C5       1.0000 0.70656  0.70657  0.88030  Biso   1.000  C
  C6       1.0000 0.70656  0.70657  0.70657  Biso   1.000  C
  C7       1.0000 0.70656  0.88030  0.70657  Biso   1.000  C
  C8       1.0000 0.88029  0.70657  0.70657  Biso   1.000  C
  C9       1.0000 0.45520  0.45520  0.93480  Biso   1.000  C
  C10      1.0000 0.45520  0.45520  0.15480  Biso   1.000  C
  C11      1.0000 0.93480  0.15480  0.45520  Biso   1.000  C
  C12      1.0000 0.15480  0.93480  0.45520  Biso   1.000  C
  C13      1.0000 0.45520  0.93480  0.15480  Biso   1.000  C
  C14      1.0000 0.45520  0.15480  0.93480  Biso   1.000  C
  C15      1.0000 0.93480  0.45520  0.45520  Biso   1.000  C
  C16      1.0000 0.15480  0.45520  0.45520  Biso   1.000  C
  C17      1.0000 0.45520  0.15480  0.45520  Biso   1.000  C
  C18      1.0000 0.45520  0.93480  0.45520  Biso   1.000  C
  C19      1.0000 0.93480  0.45520  0.15480  Biso   1.000  C
  C20      1.0000 0.15480  0.45520  0.93480  Biso   1.000  C
  C21      1.0000 0.54480  0.54480  0.06520  Biso   1.000  C
  C22      1.0000 0.54480  0.54480  0.84520  Biso   1.000  C
  C23      1.0000 0.84520  0.06520  0.54480  Biso   1.000  C
  C24      1.0000 0.06520  0.84520  0.54480  Biso   1.000  C
  C25      1.0000 0.06520  0.54480  0.84520  Biso   1.000  C
  C26      1.0000 0.84520  0.54480  0.06520  Biso   1.000  C
  C27      1.0000 0.54480  0.06520  0.54480  Biso   1.000  C
  C28      1.0000 0.54480  0.84520  0.54480  Biso   1.000  C
  C29      1.0000 0.84520  0.54480  0.54480  Biso   1.000  C
  C30      1.0000 0.06520  0.54480  0.54480  Biso   1.000  C
  C31      1.0000 0.54480  0.06520  0.84520  Biso   1.000  C
  C32      1.0000 0.54480  0.84520  0.06520  Biso   1.000  C
  C33      1.0000 0.47339  0.47339  0.96175  Biso   1.000  C
  C34      1.0000 0.47339  0.47339  0.09147  Biso   1.000  C
  C35      1.0000 0.96175  0.09147  0.47339  Biso   1.000  C
  C36      1.0000 0.09147  0.96175  0.47339  Biso   1.000  C
  C37      1.0000 0.47339  0.96175  0.09147  Biso   1.000  C
  C38      1.0000 0.47339  0.09147  0.96175  Biso   1.000  C
  C39      1.0000 0.96175  0.47339  0.47339  Biso   1.000  C
  C40      1.0000 0.09147  0.47339  0.47339  Biso   1.000  C
  C41      1.0000 0.47339  0.09147  0.47339  Biso   1.000  C
  C42      1.0000 0.47339  0.96175  0.47339  Biso   1.000  C
  C43      1.0000 0.96175  0.47339  0.09147  Biso   1.000  C
  C44      1.0000 0.09147  0.47339  0.96175  Biso   1.000  C
  C45      1.0000 0.52661  0.52661  0.03825  Biso   1.000  C
  C46      1.0000 0.52661  0.52661  0.90853  Biso   1.000  C
  C47      1.0000 0.90853  0.03825  0.52661  Biso   1.000  C
  C48      1.0000 0.03825  0.90853  0.52661  Biso   1.000  C
  C49      1.0000 0.03825  0.52661  0.90853  Biso   1.000  C
  C50      1.0000 0.90853  0.52661  0.03825  Biso   1.000  C
  C51      1.0000 0.52661  0.03825  0.52661  Biso   1.000  C
  C52      1.0000 0.52661  0.90853  0.52661  Biso   1.000  C
  C53      1.0000 0.90853  0.52661  0.52661  Biso   1.000  C
  C54      1.0000 0.03825  0.52661  0.52661  Biso   1.000  C
  C55      1.0000 0.52661  0.03825  0.90853  Biso   1.000  C
  C56      1.0000 0.52661  0.90853  0.03825  Biso   1.000  C
  C57      1.0000 0.38840  0.38840  0.11160  Biso   1.000  C
  C58      1.0000 0.44637  0.44637  0.05363  Biso   1.000  C
  C59      1.0000 0.11160  0.11160  0.38840  Biso   1.000  C
  C60      1.0000 0.05363  0.05363  0.44637  Biso   1.000  C
  C61      1.0000 0.38840  0.11160  0.11160  Biso   1.000  C
  C62      1.0000 0.44637  0.05363  0.05363  Biso   1.000  C
  C63      1.0000 0.11160  0.38840  0.38840  Biso   1.000  C
  C64      1.0000 0.05363  0.44637  0.44637  Biso   1.000  C
  C65      1.0000 0.38840  0.11160  0.38840  Biso   1.000  C
  C66      1.0000 0.44637  0.05363  0.44637  Biso   1.000  C
  C67      1.0000 0.11160  0.38840  0.11160  Biso   1.000  C
  C68      1.0000 0.05363  0.44637  0.05363  Biso   1.000  C
  C69      1.0000 0.61160  0.61160  0.88840  Biso   1.000  C
  C70      1.0000 0.55363  0.55363  0.94637  Biso   1.000  C
  C71      1.0000 0.88840  0.88840  0.61160  Biso   1.000  C
  C72      1.0000 0.94637  0.94637  0.55363  Biso   1.000  C
  C73      1.0000 0.88840  0.61160  0.88840  Biso   1.000  C
  C74      1.0000 0.94637  0.55363  0.94637  Biso   1.000  C
  C75      1.0000 0.61160  0.88840  0.61160  Biso   1.000  C
  C76      1.0000 0.55363  0.94637  0.55363  Biso   1.000  C
  C77      1.0000 0.88840  0.61160  0.61160  Biso   1.000  C
  C78      1.0000 0.94637  0.55363  0.55363  Biso   1.000  C
  C79      1.0000 0.61160  0.88840  0.88840  Biso   1.000  C
  C80      1.0000 0.55363  0.94637  0.94637  Biso   1.000  C
  C81      1.0000 0.25000  0.25000  0.25000  Biso   1.000  C
  C82      1.0000 0.75000  0.75000  0.75000  Biso   1.000  C
  C83      1.0000 0.36613  0.36613  0.07281  Biso   1.000  C
  C84      1.0000 0.36613  0.36613  0.19493  Biso   1.000  C
  C85      1.0000 0.07281  0.19493  0.36613  Biso   1.000  C
  C86      1.0000 0.19493  0.07281  0.36613  Biso   1.000  C
  C87      1.0000 0.36613  0.07281  0.19493  Biso   1.000  C
  C88      1.0000 0.36613  0.19493  0.07281  Biso   1.000  C
  C89      1.0000 0.07281  0.36613  0.36613  Biso   1.000  C
  C90      1.0000 0.19493  0.36613  0.36613  Biso   1.000  C
  C91      1.0000 0.36613  0.19493  0.36613  Biso   1.000  C
  C92      1.0000 0.36613  0.07281  0.36613  Biso   1.000  C
  C93      1.0000 0.07281  0.36613  0.19493  Biso   1.000  C
  C94      1.0000 0.19493  0.36613  0.07281  Biso   1.000  C
  C95      1.0000 0.63387  0.63387  0.92719  Biso   1.000  C
  C96      1.0000 0.63387  0.63387  0.80507  Biso   1.000  C
  C97      1.0000 0.80507  0.92719  0.63387  Biso   1.000  C
  C98      1.0000 0.92719  0.80507  0.63387  Biso   1.000  C
  C99      1.0000 0.92719  0.63387  0.80507  Biso   1.000  C
  C100     1.0000 0.80507  0.63387  0.92719  Biso   1.000  C
  C101     1.0000 0.63387  0.92719  0.63387  Biso   1.000  C
  C102     1.0000 0.63387  0.80507  0.63387  Biso   1.000  C
  C103     1.0000 0.80507  0.63387  0.63387  Biso   1.000  C
  C104     1.0000 0.92719  0.63387  0.63387  Biso   1.000  C
  C105     1.0000 0.63387  0.92719  0.80507  Biso   1.000  C
  C106     1.0000 0.63387  0.80507  0.92719  Biso   1.000  C
  O1       1.0000 0.50174  0.51924  0.33450  Biso   1.000  O
  O2       1.0000 0.50174  0.51924  0.50818  Biso   1.000  O
  O3       1.0000 0.32806  0.51924  0.50818  Biso   1.000  O
  O4       1.0000 0.50174  0.34557  0.50818  Biso   1.000  O
  O5       1.0000 0.91435  0.93184  0.09444  Biso   1.000  O
  O6       1.0000 0.91435  0.93184  0.92077  Biso   1.000  O
  O7       1.0000 0.91435  0.10551  0.92077  Biso   1.000  O
  O8       1.0000 0.08802  0.93184  0.92077  Biso   1.000  O
  O9       1.0000 0.66309  0.68059  0.14918  Biso   1.000  O
  O10      1.0000 0.66309  0.68059  0.36966  Biso   1.000  O
  O11      1.0000 0.14275  0.38073  0.66952  Biso   1.000  O
  O12      1.0000 0.36323  0.16025  0.66952  Biso   1.000  O
  O13      1.0000 0.66309  0.16025  0.36966  Biso   1.000  O
  O14      1.0000 0.66309  0.38073  0.14918  Biso   1.000  O
  O15      1.0000 0.14275  0.68059  0.66952  Biso   1.000  O
  O16      1.0000 0.36323  0.68059  0.66952  Biso   1.000  O
  O17      1.0000 0.66309  0.38073  0.66952  Biso   1.000  O
  O18      1.0000 0.66309  0.16025  0.66952  Biso   1.000  O
  O19      1.0000 0.14275  0.68059  0.36966  Biso   1.000  O
  O20      1.0000 0.36323  0.68059  0.14918  Biso   1.000  O
  O21      1.0000 0.75299  0.77049  0.27977  Biso   1.000  O
  O22      1.0000 0.75299  0.77049  0.05928  Biso   1.000  O
  O23      1.0000 0.05285  0.29083  0.75942  Biso   1.000  O
  O24      1.0000 0.27334  0.07035  0.75942  Biso   1.000  O
  O25      1.0000 0.27334  0.77049  0.05928  Biso   1.000  O
  O26      1.0000 0.05285  0.77049  0.27977  Biso   1.000  O
  O27      1.0000 0.75299  0.29083  0.75942  Biso   1.000  O
  O28      1.0000 0.75299  0.07035  0.75942  Biso   1.000  O
  O29      1.0000 0.05285  0.77049  0.75942  Biso   1.000  O
  O30      1.0000 0.27334  0.77049  0.75942  Biso   1.000  O
  O31      1.0000 0.75299  0.29083  0.05928  Biso   1.000  O
  O32      1.0000 0.75299  0.07035  0.27977  Biso   1.000  O
  O33      1.0000 0.68129  0.69879  0.17607  Biso   1.000  O
  O34      1.0000 0.68129  0.69879  0.30638  Biso   1.000  O
  O35      1.0000 0.16964  0.31744  0.68772  Biso   1.000  O
  O36      1.0000 0.29995  0.18713  0.68772  Biso   1.000  O
  O37      1.0000 0.68129  0.18713  0.30638  Biso   1.000  O
  O38      1.0000 0.68129  0.31744  0.17607  Biso   1.000  O
  O39      1.0000 0.16964  0.69879  0.68772  Biso   1.000  O
  O40      1.0000 0.29995  0.69879  0.68772  Biso   1.000  O
  O41      1.0000 0.68129  0.31744  0.68772  Biso   1.000  O
  O42      1.0000 0.68129  0.18713  0.68772  Biso   1.000  O
  O43      1.0000 0.16964  0.69879  0.30638  Biso   1.000  O
  O44      1.0000 0.29995  0.69879  0.17607  Biso   1.000  O
  O45      1.0000 0.73479  0.75229  0.25288  Biso   1.000  O
  O46      1.0000 0.73479  0.75229  0.12257  Biso   1.000  O
  O47      1.0000 0.11614  0.26395  0.74122  Biso   1.000  O
  O48      1.0000 0.24645  0.13364  0.74122  Biso   1.000  O
  O49      1.0000 0.24645  0.75229  0.12257  Biso   1.000  O
  O50      1.0000 0.11614  0.75229  0.25288  Biso   1.000  O
  O51      1.0000 0.73479  0.26395  0.74122  Biso   1.000  O
  O52      1.0000 0.73479  0.13364  0.74122  Biso   1.000  O
  O53      1.0000 0.11614  0.75229  0.74122  Biso   1.000  O
  O54      1.0000 0.24645  0.75229  0.74122  Biso   1.000  O
  O55      1.0000 0.73479  0.26395  0.12257  Biso   1.000  O
  O56      1.0000 0.73479  0.13364  0.25288  Biso   1.000  O
  O57      1.0000 0.59657  0.61407  0.32651  Biso   1.000  O
  O58      1.0000 0.65449  0.67199  0.26859  Biso   1.000  O
  O59      1.0000 0.32008  0.33758  0.60300  Biso   1.000  O
  O60      1.0000 0.26216  0.27966  0.66092  Biso   1.000  O
  O61      1.0000 0.59657  0.33758  0.32651  Biso   1.000  O
  O62      1.0000 0.65449  0.27966  0.26859  Biso   1.000  O
  O63      1.0000 0.32008  0.61407  0.60300  Biso   1.000  O
  O64      1.0000 0.26216  0.67199  0.66092  Biso   1.000  O
  O65      1.0000 0.59657  0.33758  0.60300  Biso   1.000  O
  O66      1.0000 0.65449  0.27966  0.66092  Biso   1.000  O
  O67      1.0000 0.32008  0.61407  0.32651  Biso   1.000  O
  O68      1.0000 0.26216  0.67199  0.26859  Biso   1.000  O
  O69      1.0000 0.81952  0.83701  0.10243  Biso   1.000  O
  O70      1.0000 0.76159  0.77909  0.16035  Biso   1.000  O
  O71      1.0000 0.09600  0.11350  0.82594  Biso   1.000  O
  O72      1.0000 0.15393  0.17142  0.76802  Biso   1.000  O
  O73      1.0000 0.09600  0.83701  0.10243  Biso   1.000  O
  O74      1.0000 0.15393  0.77909  0.16035  Biso   1.000  O
  O75      1.0000 0.81952  0.11350  0.82594  Biso   1.000  O
  O76      1.0000 0.76159  0.17142  0.76802  Biso   1.000  O
  O77      1.0000 0.09600  0.83701  0.82594  Biso   1.000  O
  O78      1.0000 0.15393  0.77909  0.76802  Biso   1.000  O
  O79      1.0000 0.81952  0.11350  0.10243  Biso   1.000  O
  O80      1.0000 0.76159  0.17142  0.16035  Biso   1.000  O
  O81      1.0000 0.45833  0.47582  0.46476  Biso   1.000  O
  O82      1.0000 0.95776  0.97526  0.96419  Biso   1.000  O
  O83      1.0000 0.57431  0.59181  0.28794  Biso   1.000  O
  O84      1.0000 0.57431  0.59181  0.40960  Biso   1.000  O
  O85      1.0000 0.28151  0.42067  0.58074  Biso   1.000  O
  O86      1.0000 0.40317  0.29901  0.58074  Biso   1.000  O
  O87      1.0000 0.57431  0.29901  0.40960  Biso   1.000  O
  O88      1.0000 0.57431  0.42067  0.28794  Biso   1.000  O
  O89      1.0000 0.28151  0.59181  0.58074  Biso   1.000  O
  O90      1.0000 0.40317  0.59181  0.58074  Biso   1.000  O
  O91      1.0000 0.57431  0.42067  0.58074  Biso   1.000  O
  O92      1.0000 0.57431  0.29901  0.58074  Biso   1.000  O
  O93      1.0000 0.28151  0.59181  0.40960  Biso   1.000  O
  O94      1.0000 0.40317  0.59181  0.28794  Biso   1.000  O
  O95      1.0000 0.84177  0.85927  0.14101  Biso   1.000  O
  O96      1.0000 0.84177  0.85927  0.01934  Biso   1.000  O
  O97      1.0000 0.01292  0.15207  0.84820  Biso   1.000  O
  O98      1.0000 0.13458  0.03041  0.84820  Biso   1.000  O
  O99      1.0000 0.13458  0.85927  0.01934  Biso   1.000  O
  O100     1.0000 0.01292  0.85927  0.14101  Biso   1.000  O
  O101     1.0000 0.84177  0.15207  0.84820  Biso   1.000  O
  O102     1.0000 0.84177  0.03041  0.84820  Biso   1.000  O
  O103     1.0000 0.01292  0.85927  0.84820  Biso   1.000  O
  O104     1.0000 0.13458  0.85927  0.84820  Biso   1.000  O
  O105     1.0000 0.84177  0.15207  0.01934  Biso   1.000  O
  O106     1.0000 0.84177  0.03041  0.14101  Biso   1.000  O
