data_image0
_cell_length_a       18.3017
_cell_length_b       18.3017
_cell_length_c       18.3017
_cell_angle_alpha    60
_cell_angle_beta     60
_cell_angle_gamma    60

_symmetry_space_group_name_H-M    "P 1"
_symmetry_int_tables_number       1

loop_
  _symmetry_equiv_pos_as_xyz
  'x, y, z'

loop_
  _atom_site_label
  _atom_site_occupancy
  _atom_site_fract_x
  _atom_site_fract_y
  _atom_site_fract_z
  _atom_site_thermal_displace_type
  _atom_site_B_iso_or_equiv
  _atom_site_type_symbol
  C1       1.0000 0.29342  0.29343  0.11972  Biso   1.000  C
  C2       1.0000 0.29343  0.29342  0.29343  Biso   1.000  C
  C3       1.0000 0.11972  0.29343  0.29342  Biso   1.000  C
  C4       1.0000 0.29343  0.11972  0.29343  Biso   1.000  C
  C5       1.0000 0.70657  0.70658  0.88028  Biso   1.000  C
  C6       1.0000 0.70657  0.70658  0.70657  Biso   1.000  C
  C7       1.0000 0.70658  0.88028  0.70657  Biso   1.000  C
  C8       1.0000 0.88029  0.70657  0.70657  Biso   1.000  C
  C9       1.0000 0.45510  0.45510  0.93470  Biso   1.000  C
  C10      1.0000 0.45510  0.45510  0.15510  Biso   1.000  C
  C11      1.0000 0.93470  0.15510  0.45510  Biso   1.000  C
  C12      1.0000 0.15510  0.93470  0.45510  Biso   1.000  C
  C13      1.0000 0.45510  0.93470  0.15510  Biso   1.000  C
  C14      1.0000 0.45510  0.15510  0.93470  Biso   1.000  C
  C15      1.0000 0.93470  0.45510  0.45510  Biso   1.000  C
  C16      1.0000 0.15510  0.45510  0.45510  Biso   1.000  C
  C17      1.0000 0.45510  0.15510  0.45510  Biso   1.000  C
  C18      1.0000 0.45510  0.93470  0.45510  Biso   1.000  C
  C19      1.0000 0.93470  0.45510  0.15510  Biso   1.000  C
  C20      1.0000 0.15510  0.45510  0.93470  Biso   1.000  C
  C21      1.0000 0.54490  0.54490  0.06530  Biso   1.000  C
  C22      1.0000 0.54490  0.54490  0.84490  Biso   1.000  C
  C23      1.0000 0.84490  0.06530  0.54490  Biso   1.000  C
  C24      1.0000 0.06530  0.84490  0.54490  Biso   1.000  C
  C25      1.0000 0.06530  0.54490  0.84490  Biso   1.000  C
  C26      1.0000 0.84490  0.54490  0.06530  Biso   1.000  C
  C27      1.0000 0.54490  0.06530  0.54490  Biso   1.000  C
  C28      1.0000 0.54490  0.84490  0.54490  Biso   1.000  C
  C29      1.0000 0.84490  0.54490  0.54490  Biso   1.000  C
  C30      1.0000 0.06530  0.54490  0.54490  Biso   1.000  C
  C31      1.0000 0.54490  0.06530  0.84490  Biso   1.000  C
  C32      1.0000 0.54490  0.84490  0.06530  Biso   1.000  C
  C33      1.0000 0.47334  0.47334  0.96156  Biso   1.000  C
  C34      1.0000 0.47334  0.47334  0.09176  Biso   1.000  C
  C35      1.0000 0.96156  0.09176  0.47334  Biso   1.000  C
  C36      1.0000 0.09176  0.96156  0.47334  Biso   1.000  C
  C37      1.0000 0.47334  0.96156  0.09176  Biso   1.000  C
  C38      1.0000 0.47334  0.09176  0.96156  Biso   1.000  C
  C39      1.0000 0.96156  0.47334  0.47334  Biso   1.000  C
  C40      1.0000 0.09176  0.47334  0.47334  Biso   1.000  C
  C41      1.0000 0.47334  0.09176  0.47334  Biso   1.000  C
  C42      1.0000 0.47334  0.96156  0.47334  Biso   1.000  C
  C43      1.0000 0.96156  0.47334  0.09176  Biso   1.000  C
  C44      1.0000 0.09176  0.47334  0.96156  Biso   1.000  C
  C45      1.0000 0.52666  0.52666  0.03844  Biso   1.000  C
  C46      1.0000 0.52666  0.52666  0.90824  Biso   1.000  C
  C47      1.0000 0.90824  0.03844  0.52666  Biso   1.000  C
  C48      1.0000 0.03844  0.90824  0.52666  Biso   1.000  C
  C49      1.0000 0.03844  0.52666  0.90824  Biso   1.000  C
  C50      1.0000 0.90824  0.52666  0.03844  Biso   1.000  C
  C51      1.0000 0.52666  0.03844  0.52666  Biso   1.000  C
  C52      1.0000 0.52666  0.90824  0.52666  Biso   1.000  C
  C53      1.0000 0.90824  0.52666  0.52666  Biso   1.000  C
  C54      1.0000 0.03844  0.52666  0.52666  Biso   1.000  C
  C55      1.0000 0.52666  0.03844  0.90824  Biso   1.000  C
  C56      1.0000 0.52666  0.90824  0.03844  Biso   1.000  C
  C57      1.0000 0.38843  0.38843  0.11157  Biso   1.000  C
  C58      1.0000 0.44642  0.44642  0.05358  Biso   1.000  C
  C59      1.0000 0.11157  0.11157  0.38843  Biso   1.000  C
  C60      1.0000 0.05358  0.05358  0.44642  Biso   1.000  C
  C61      1.0000 0.38843  0.11157  0.11157  Biso   1.000  C
  C62      1.0000 0.44642  0.05358  0.05358  Biso   1.000  C
  C63      1.0000 0.11157  0.38843  0.38843  Biso   1.000  C
  C64      1.0000 0.05358  0.44642  0.44642  Biso   1.000  C
  C65      1.0000 0.38843  0.11157  0.38843  Biso   1.000  C
  C66      1.0000 0.44642  0.05358  0.44642  Biso   1.000  C
  C67      1.0000 0.11157  0.38843  0.11157  Biso   1.000  C
  C68      1.0000 0.05358  0.44642  0.05358  Biso   1.000  C
  C69      1.0000 0.61157  0.61157  0.88843  Biso   1.000  C
  C70      1.0000 0.55358  0.55358  0.94642  Biso   1.000  C
  C71      1.0000 0.88843  0.88843  0.61157  Biso   1.000  C
  C72      1.0000 0.94642  0.94642  0.55358  Biso   1.000  C
  C73      1.0000 0.88843  0.61157  0.88843  Biso   1.000  C
  C74      1.0000 0.94642  0.55358  0.94642  Biso   1.000  C
  C75      1.0000 0.61157  0.88843  0.61157  Biso   1.000  C
  C76      1.0000 0.55358  0.94642  0.55358  Biso   1.000  C
  C77      1.0000 0.88843  0.61157  0.61157  Biso   1.000  C
  C78      1.0000 0.94642  0.55358  0.55358  Biso   1.000  C
  C79      1.0000 0.61157  0.88843  0.88843  Biso   1.000  C
  C80      1.0000 0.55358  0.94642  0.94642  Biso   1.000  C
  C81      1.0000 0.25000  0.25000  0.25000  Biso   1.000  C
  C82      1.0000 0.75000  0.75000  0.75000  Biso   1.000  C
  C83      1.0000 0.36609  0.36609  0.07295  Biso   1.000  C
  C84      1.0000 0.36609  0.36609  0.19487  Biso   1.000  C
  C85      1.0000 0.07295  0.19487  0.36609  Biso   1.000  C
  C86      1.0000 0.19487  0.07295  0.36609  Biso   1.000  C
  C87      1.0000 0.36609  0.07295  0.19487  Biso   1.000  C
  C88      1.0000 0.36609  0.19487  0.07295  Biso   1.000  C
  C89      1.0000 0.07295  0.36609  0.36609  Biso   1.000  C
  C90      1.0000 0.19487  0.36609  0.36609  Biso   1.000  C
  C91      1.0000 0.36609  0.19487  0.36609  Biso   1.000  C
  C92      1.0000 0.36609  0.07295  0.36609  Biso   1.000  C
  C93      1.0000 0.07295  0.36609  0.19487  Biso   1.000  C
  C94      1.0000 0.19487  0.36609  0.07295  Biso   1.000  C
  C95      1.0000 0.63391  0.63391  0.92705  Biso   1.000  C
  C96      1.0000 0.63391  0.63391  0.80513  Biso   1.000  C
  C97      1.0000 0.80513  0.92705  0.63391  Biso   1.000  C
  C98      1.0000 0.92705  0.80513  0.63391  Biso   1.000  C
  C99      1.0000 0.92705  0.63391  0.80513  Biso   1.000  C
  C100     1.0000 0.80513  0.63391  0.92705  Biso   1.000  C
  C101     1.0000 0.63391  0.92705  0.63391  Biso   1.000  C
  C102     1.0000 0.63391  0.80513  0.63391  Biso   1.000  C
  C103     1.0000 0.80513  0.63391  0.63391  Biso   1.000  C
  C104     1.0000 0.92705  0.63391  0.63391  Biso   1.000  C
  C105     1.0000 0.63391  0.92705  0.80513  Biso   1.000  C
  C106     1.0000 0.63391  0.80513  0.92705  Biso   1.000  C
  O1       1.0000 0.17140  0.96917  0.86764  Biso   1.000  O
  O2       1.0000 0.58721  0.38496  0.45190  Biso   1.000  O
  O3       1.0000 0.41381  0.55837  0.45190  Biso   1.000  O
  O4       1.0000 0.99800  0.14258  0.86764  Biso   1.000  O
  O5       1.0000 0.99781  0.96898  0.04120  Biso   1.000  O
  O6       1.0000 0.99793  0.96911  0.86743  Biso   1.000  O
  O7       1.0000 0.58741  0.55856  0.27834  Biso   1.000  O
  O8       1.0000 0.58728  0.55844  0.45211  Biso   1.000  O
  O9       1.0000 0.83618  0.32997  0.00828  Biso   1.000  O
  O10      1.0000 0.83307  0.10956  0.22104  Biso   1.000  O
  O11      1.0000 0.83977  0.32799  0.70739  Biso   1.000  O
  O12      1.0000 0.83927  0.10840  0.70212  Biso   1.000  O
  O13      1.0000 0.35793  0.10899  0.70918  Biso   1.000  O
  O14      1.0000 0.22640  0.72020  0.31126  Biso   1.000  O
  O15      1.0000 0.44682  0.72330  0.09850  Biso   1.000  O
  O16      1.0000 0.22837  0.71661  0.61215  Biso   1.000  O
  O17      1.0000 0.44799  0.71710  0.61743  Biso   1.000  O
  O18      1.0000 0.44738  0.19845  0.61036  Biso   1.000  O
  O19      1.0000 0.74903  0.19757  0.31126  Biso   1.000  O
  O20      1.0000 0.75214  0.41798  0.09850  Biso   1.000  O
  O21      1.0000 0.74544  0.19955  0.61215  Biso   1.000  O
  O22      1.0000 0.74594  0.41914  0.61743  Biso   1.000  O
  O23      1.0000 0.22728  0.41855  0.61036  Biso   1.000  O
  O24      1.0000 0.35881  0.80734  0.00828  Biso   1.000  O
  O25      1.0000 0.13839  0.80424  0.22104  Biso   1.000  O
  O26      1.0000 0.35684  0.81093  0.70739  Biso   1.000  O
  O27      1.0000 0.13722  0.81044  0.70212  Biso   1.000  O
  O28      1.0000 0.13783  0.32909  0.70918  Biso   1.000  O
  O29      1.0000 0.83747  0.80863  0.00758  Biso   1.000  O
  O30      1.0000 0.83477  0.80594  0.22492  Biso   1.000  O
  O31      1.0000 0.74775  0.71891  0.31196  Biso   1.000  O
  O32      1.0000 0.75044  0.72161  0.09462  Biso   1.000  O
  O33      1.0000 0.90379  0.15224  0.04677  Biso   1.000  O
  O34      1.0000 0.84531  0.20892  0.10685  Biso   1.000  O
  O35      1.0000 0.81937  0.30361  0.07025  Biso   1.000  O
  O36      1.0000 0.81756  0.17142  0.19558  Biso   1.000  O
  O37      1.0000 0.90421  0.15106  0.77164  Biso   1.000  O
  O38      1.0000 0.84862  0.20646  0.71505  Biso   1.000  O
  O39      1.0000 0.82098  0.30244  0.68998  Biso   1.000  O
  O40      1.0000 0.82057  0.17006  0.68660  Biso   1.000  O
  O41      1.0000 0.33178  0.17075  0.68978  Biso   1.000  O
  O42      1.0000 0.40415  0.65258  0.27277  Biso   1.000  O
  O43      1.0000 0.34747  0.71106  0.21269  Biso   1.000  O
  O44      1.0000 0.25276  0.73701  0.24929  Biso   1.000  O
  O45      1.0000 0.38496  0.73881  0.12396  Biso   1.000  O
  O46      1.0000 0.40533  0.65216  0.54790  Biso   1.000  O
  O47      1.0000 0.34993  0.70776  0.60449  Biso   1.000  O
  O48      1.0000 0.25393  0.73540  0.62956  Biso   1.000  O
  O49      1.0000 0.38633  0.73580  0.63294  Biso   1.000  O
  O50      1.0000 0.38563  0.22461  0.62976  Biso   1.000  O
  O51      1.0000 0.68142  0.37530  0.27277  Biso   1.000  O
  O52      1.0000 0.73990  0.31862  0.21269  Biso   1.000  O
  O53      1.0000 0.76584  0.22393  0.24929  Biso   1.000  O
  O54      1.0000 0.76765  0.35612  0.12396  Biso   1.000  O
  O55      1.0000 0.68100  0.37648  0.54790  Biso   1.000  O
  O56      1.0000 0.73659  0.32109  0.60449  Biso   1.000  O
  O57      1.0000 0.76423  0.22511  0.62956  Biso   1.000  O
  O58      1.0000 0.76464  0.35748  0.63294  Biso   1.000  O
  O59      1.0000 0.25343  0.35679  0.62976  Biso   1.000  O
  O60      1.0000 0.18106  0.87496  0.04677  Biso   1.000  O
  O61      1.0000 0.23775  0.81648  0.10685  Biso   1.000  O
  O62      1.0000 0.33246  0.79053  0.07025  Biso   1.000  O
  O63      1.0000 0.20025  0.78873  0.19558  Biso   1.000  O
  O64      1.0000 0.17988  0.87538  0.77164  Biso   1.000  O
  O65      1.0000 0.23528  0.81979  0.71505  Biso   1.000  O
  O66      1.0000 0.33128  0.79214  0.68998  Biso   1.000  O
  O67      1.0000 0.19888  0.79174  0.68660  Biso   1.000  O
  O68      1.0000 0.19959  0.30293  0.68978  Biso   1.000  O
  O69      1.0000 0.90210  0.87327  0.05334  Biso   1.000  O
  O70      1.0000 0.84631  0.81748  0.10606  Biso   1.000  O
  O71      1.0000 0.81986  0.79103  0.06925  Biso   1.000  O
  O72      1.0000 0.81747  0.78863  0.19757  Biso   1.000  O
  O73      1.0000 0.17700  0.14817  0.77682  Biso   1.000  O
  O74      1.0000 0.23687  0.20805  0.71515  Biso   1.000  O
  O75      1.0000 0.68311  0.65427  0.26620  Biso   1.000  O
  O76      1.0000 0.73890  0.71006  0.21348  Biso   1.000  O
  O77      1.0000 0.76535  0.73652  0.25029  Biso   1.000  O
  O78      1.0000 0.76775  0.73891  0.12197  Biso   1.000  O
  O79      1.0000 0.40821  0.37937  0.54272  Biso   1.000  O
  O80      1.0000 0.34834  0.31949  0.60439  Biso   1.000  O
  O81      1.0000 0.92378  0.06700  0.09004  Biso   1.000  O
  O82      1.0000 0.92617  0.19252  0.96451  Biso   1.000  O
  O83      1.0000 0.92350  0.06593  0.79681  Biso   1.000  O
  O84      1.0000 0.92569  0.19104  0.79402  Biso   1.000  O
  O85      1.0000 0.21916  0.06563  0.79631  Biso   1.000  O
  O86      1.0000 0.48938  0.63259  0.22950  Biso   1.000  O
  O87      1.0000 0.36387  0.63020  0.35503  Biso   1.000  O
  O88      1.0000 0.49046  0.63287  0.52273  Biso   1.000  O
  O89      1.0000 0.36535  0.63068  0.52552  Biso   1.000  O
  O90      1.0000 0.49076  0.33720  0.52323  Biso   1.000  O
  O91      1.0000 0.66143  0.46054  0.22950  Biso   1.000  O
  O92      1.0000 0.65904  0.33502  0.35503  Biso   1.000  O
  O93      1.0000 0.66171  0.46162  0.52273  Biso   1.000  O
  O94      1.0000 0.65952  0.33650  0.52552  Biso   1.000  O
  O95      1.0000 0.36605  0.46191  0.52323  Biso   1.000  O
  O96      1.0000 0.09583  0.89495  0.09004  Biso   1.000  O
  O97      1.0000 0.22134  0.89735  0.96451  Biso   1.000  O
  O98      1.0000 0.09475  0.89467  0.79681  Biso   1.000  O
  O99      1.0000 0.21986  0.89686  0.79402  Biso   1.000  O
  O100     1.0000 0.09445  0.19034  0.79631  Biso   1.000  O
  O101     1.0000 0.04114  0.01232  0.91130  Biso   1.000  O
  O102     1.0000 0.92517  0.89634  0.08905  Biso   1.000  O
  O103     1.0000 0.92359  0.89476  0.96919  Biso   1.000  O
  O104     1.0000 0.54407  0.51523  0.40824  Biso   1.000  O
  O105     1.0000 0.66004  0.63120  0.23049  Biso   1.000  O
  O106     1.0000 0.66162  0.63278  0.35035  Biso   1.000  O
