data_image0
_cell_length_a       18.2704
_cell_length_b       18.2704
_cell_length_c       18.2704
_cell_angle_alpha    60
_cell_angle_beta     60
_cell_angle_gamma    60

_symmetry_space_group_name_H-M    "P 1"
_symmetry_int_tables_number       1

loop_
  _symmetry_equiv_pos_as_xyz
  'x, y, z'

loop_
  _atom_site_label
  _atom_site_occupancy
  _atom_site_fract_x
  _atom_site_fract_y
  _atom_site_fract_z
  _atom_site_thermal_displace_type
  _atom_site_B_iso_or_equiv
  _atom_site_type_symbol
  C1       1.0000 0.29350  0.29349  0.11952  Biso   1.000  C
  C2       1.0000 0.29350  0.29349  0.29349  Biso   1.000  C
  C3       1.0000 0.11953  0.29349  0.29349  Biso   1.000  C
  C4       1.0000 0.29350  0.11952  0.29349  Biso   1.000  C
  C5       1.0000 0.70650  0.70651  0.88048  Biso   1.000  C
  C6       1.0000 0.70650  0.70651  0.70651  Biso   1.000  C
  C7       1.0000 0.70650  0.88048  0.70651  Biso   1.000  C
  C8       1.0000 0.88047  0.70651  0.70651  Biso   1.000  C
  C9       1.0000 0.45540  0.45540  0.93560  Biso   1.000  C
  C10      1.0000 0.45540  0.45540  0.15360  Biso   1.000  C
  C11      1.0000 0.93560  0.15360  0.45540  Biso   1.000  C
  C12      1.0000 0.15360  0.93560  0.45540  Biso   1.000  C
  C13      1.0000 0.45540  0.93560  0.15360  Biso   1.000  C
  C14      1.0000 0.45540  0.15360  0.93560  Biso   1.000  C
  C15      1.0000 0.93560  0.45540  0.45540  Biso   1.000  C
  C16      1.0000 0.15360  0.45540  0.45540  Biso   1.000  C
  C17      1.0000 0.45540  0.15360  0.45540  Biso   1.000  C
  C18      1.0000 0.45540  0.93560  0.45540  Biso   1.000  C
  C19      1.0000 0.93560  0.45540  0.15360  Biso   1.000  C
  C20      1.0000 0.15360  0.45540  0.93560  Biso   1.000  C
  C21      1.0000 0.54460  0.54460  0.06440  Biso   1.000  C
  C22      1.0000 0.54460  0.54460  0.84640  Biso   1.000  C
  C23      1.0000 0.84640  0.06440  0.54460  Biso   1.000  C
  C24      1.0000 0.06440  0.84640  0.54460  Biso   1.000  C
  C25      1.0000 0.06440  0.54460  0.84640  Biso   1.000  C
  C26      1.0000 0.84640  0.54460  0.06440  Biso   1.000  C
  C27      1.0000 0.54460  0.06440  0.54460  Biso   1.000  C
  C28      1.0000 0.54460  0.84640  0.54460  Biso   1.000  C
  C29      1.0000 0.84640  0.54460  0.54460  Biso   1.000  C
  C30      1.0000 0.06440  0.54460  0.54460  Biso   1.000  C
  C31      1.0000 0.54460  0.06440  0.84640  Biso   1.000  C
  C32      1.0000 0.54460  0.84640  0.06440  Biso   1.000  C
  C33      1.0000 0.47338  0.47338  0.96238  Biso   1.000  C
  C34      1.0000 0.47338  0.47338  0.09086  Biso   1.000  C
  C35      1.0000 0.96238  0.09086  0.47338  Biso   1.000  C
  C36      1.0000 0.09086  0.96238  0.47338  Biso   1.000  C
  C37      1.0000 0.47338  0.96238  0.09086  Biso   1.000  C
  C38      1.0000 0.47338  0.09086  0.96238  Biso   1.000  C
  C39      1.0000 0.96238  0.47338  0.47338  Biso   1.000  C
  C40      1.0000 0.09086  0.47338  0.47338  Biso   1.000  C
  C41      1.0000 0.47338  0.09086  0.47338  Biso   1.000  C
  C42      1.0000 0.47338  0.96238  0.47338  Biso   1.000  C
  C43      1.0000 0.96238  0.47338  0.09086  Biso   1.000  C
  C44      1.0000 0.09086  0.47338  0.96238  Biso   1.000  C
  C45      1.0000 0.52662  0.52662  0.03762  Biso   1.000  C
  C46      1.0000 0.52662  0.52662  0.90914  Biso   1.000  C
  C47      1.0000 0.90914  0.03762  0.52662  Biso   1.000  C
  C48      1.0000 0.03762  0.90914  0.52662  Biso   1.000  C
  C49      1.0000 0.03762  0.52662  0.90914  Biso   1.000  C
  C50      1.0000 0.90914  0.52662  0.03762  Biso   1.000  C
  C51      1.0000 0.52662  0.03762  0.52662  Biso   1.000  C
  C52      1.0000 0.52662  0.90914  0.52662  Biso   1.000  C
  C53      1.0000 0.90914  0.52662  0.52662  Biso   1.000  C
  C54      1.0000 0.03762  0.52662  0.52662  Biso   1.000  C
  C55      1.0000 0.52662  0.03762  0.90914  Biso   1.000  C
  C56      1.0000 0.52662  0.90914  0.03762  Biso   1.000  C
  C57      1.0000 0.38861  0.38861  0.11139  Biso   1.000  C
  C58      1.0000 0.44619  0.44619  0.05381  Biso   1.000  C
  C59      1.0000 0.11139  0.11139  0.38861  Biso   1.000  C
  C60      1.0000 0.05381  0.05381  0.44619  Biso   1.000  C
  C61      1.0000 0.38861  0.11139  0.11139  Biso   1.000  C
  C62      1.0000 0.44619  0.05381  0.05381  Biso   1.000  C
  C63      1.0000 0.11139  0.38861  0.38861  Biso   1.000  C
  C64      1.0000 0.05381  0.44619  0.44619  Biso   1.000  C
  C65      1.0000 0.38861  0.11139  0.38861  Biso   1.000  C
  C66      1.0000 0.44619  0.05381  0.44619  Biso   1.000  C
  C67      1.0000 0.11139  0.38861  0.11139  Biso   1.000  C
  C68      1.0000 0.05381  0.44619  0.05381  Biso   1.000  C
  C69      1.0000 0.61139  0.61139  0.88861  Biso   1.000  C
  C70      1.0000 0.55381  0.55381  0.94619  Biso   1.000  C
  C71      1.0000 0.88861  0.88861  0.61139  Biso   1.000  C
  C72      1.0000 0.94619  0.94619  0.55381  Biso   1.000  C
  C73      1.0000 0.88861  0.61139  0.88861  Biso   1.000  C
  C74      1.0000 0.94619  0.55381  0.94619  Biso   1.000  C
  C75      1.0000 0.61139  0.88861  0.61139  Biso   1.000  C
  C76      1.0000 0.55381  0.94619  0.55381  Biso   1.000  C
  C77      1.0000 0.88861  0.61139  0.61139  Biso   1.000  C
  C78      1.0000 0.94619  0.55381  0.55381  Biso   1.000  C
  C79      1.0000 0.61139  0.88861  0.88861  Biso   1.000  C
  C80      1.0000 0.55381  0.94619  0.94619  Biso   1.000  C
  C81      1.0000 0.25000  0.25000  0.25000  Biso   1.000  C
  C82      1.0000 0.75000  0.75000  0.75000  Biso   1.000  C
  C83      1.0000 0.36607  0.36607  0.07299  Biso   1.000  C
  C84      1.0000 0.36607  0.36607  0.19487  Biso   1.000  C
  C85      1.0000 0.07299  0.19487  0.36607  Biso   1.000  C
  C86      1.0000 0.19487  0.07299  0.36607  Biso   1.000  C
  C87      1.0000 0.36607  0.07299  0.19487  Biso   1.000  C
  C88      1.0000 0.36607  0.19487  0.07299  Biso   1.000  C
  C89      1.0000 0.07299  0.36607  0.36607  Biso   1.000  C
  C90      1.0000 0.19487  0.36607  0.36607  Biso   1.000  C
  C91      1.0000 0.36607  0.19487  0.36607  Biso   1.000  C
  C92      1.0000 0.36607  0.07299  0.36607  Biso   1.000  C
  C93      1.0000 0.07299  0.36607  0.19487  Biso   1.000  C
  C94      1.0000 0.19487  0.36607  0.07299  Biso   1.000  C
  C95      1.0000 0.63393  0.63393  0.92701  Biso   1.000  C
  C96      1.0000 0.63393  0.63393  0.80513  Biso   1.000  C
  C97      1.0000 0.80513  0.92701  0.63393  Biso   1.000  C
  C98      1.0000 0.92701  0.80513  0.63393  Biso   1.000  C
  C99      1.0000 0.92701  0.63393  0.80513  Biso   1.000  C
  C100     1.0000 0.80513  0.63393  0.92701  Biso   1.000  C
  C101     1.0000 0.63393  0.92701  0.63393  Biso   1.000  C
  C102     1.0000 0.63393  0.80513  0.63393  Biso   1.000  C
  C103     1.0000 0.80513  0.63393  0.63393  Biso   1.000  C
  C104     1.0000 0.92701  0.63393  0.63393  Biso   1.000  C
  C105     1.0000 0.63393  0.92701  0.80513  Biso   1.000  C
  C106     1.0000 0.63393  0.80513  0.92701  Biso   1.000  C
  O1       1.0000 0.89273  0.75708  0.43123  Biso   1.000  O
  O2       1.0000 0.06704  0.75709  0.25693  Biso   1.000  O
  O3       1.0000 0.89273  0.75708  0.25694  Biso   1.000  O
  O4       1.0000 0.89274  0.93138  0.25693  Biso   1.000  O
  O5       1.0000 0.48504  0.34251  0.66806  Biso   1.000  O
  O6       1.0000 0.31073  0.34251  0.84237  Biso   1.000  O
  O7       1.0000 0.48504  0.16821  0.84237  Biso   1.000  O
  O8       1.0000 0.48504  0.34252  0.84237  Biso   1.000  O
  O9       1.0000 0.03497  0.59485  0.61346  Biso   1.000  O
  O10      1.0000 0.25269  0.59485  0.39573  Biso   1.000  O
  O11      1.0000 0.73394  0.89588  0.09470  Biso   1.000  O
  O12      1.0000 0.73394  0.11361  0.09470  Biso   1.000  O
  O13      1.0000 0.73394  0.11361  0.39573  Biso   1.000  O
  O14      1.0000 0.73394  0.89588  0.61346  Biso   1.000  O
  O15      1.0000 0.03497  0.59485  0.09470  Biso   1.000  O
  O16      1.0000 0.25269  0.59485  0.09470  Biso   1.000  O
  O17      1.0000 0.25269  0.89588  0.09470  Biso   1.000  O
  O18      1.0000 0.03497  0.11361  0.09470  Biso   1.000  O
  O19      1.0000 0.73394  0.59485  0.39573  Biso   1.000  O
  O20      1.0000 0.73394  0.59485  0.61346  Biso   1.000  O
  O21      1.0000 0.34280  0.50474  0.48584  Biso   1.000  O
  O22      1.0000 0.12508  0.50474  0.70356  Biso   1.000  O
  O23      1.0000 0.64383  0.98599  0.00459  Biso   1.000  O
  O24      1.0000 0.64383  0.20372  0.00459  Biso   1.000  O
  O25      1.0000 0.64383  0.50474  0.70356  Biso   1.000  O
  O26      1.0000 0.64383  0.50474  0.48584  Biso   1.000  O
  O27      1.0000 0.34280  0.98599  0.00459  Biso   1.000  O
  O28      1.0000 0.12508  0.20372  0.00459  Biso   1.000  O
  O29      1.0000 0.12508  0.50474  0.00459  Biso   1.000  O
  O30      1.0000 0.34280  0.50474  0.00459  Biso   1.000  O
  O31      1.0000 0.64383  0.98599  0.70356  Biso   1.000  O
  O32      1.0000 0.64383  0.20372  0.48584  Biso   1.000  O
  O33      1.0000 0.09852  0.57655  0.58650  Biso   1.000  O
  O34      1.0000 0.22574  0.57655  0.45929  Biso   1.000  O
  O35      1.0000 0.71564  0.95944  0.07640  Biso   1.000  O
  O36      1.0000 0.71564  0.08666  0.07640  Biso   1.000  O
  O37      1.0000 0.71564  0.08666  0.45929  Biso   1.000  O
  O38      1.0000 0.71564  0.95944  0.58650  Biso   1.000  O
  O39      1.0000 0.09852  0.57655  0.07640  Biso   1.000  O
  O40      1.0000 0.22574  0.57655  0.07640  Biso   1.000  O
  O41      1.0000 0.22574  0.95944  0.07640  Biso   1.000  O
  O42      1.0000 0.09852  0.08666  0.07640  Biso   1.000  O
  O43      1.0000 0.71564  0.57655  0.45929  Biso   1.000  O
  O44      1.0000 0.71564  0.57655  0.58650  Biso   1.000  O
  O45      1.0000 0.27924  0.52305  0.51279  Biso   1.000  O
  O46      1.0000 0.15203  0.52305  0.64001  Biso   1.000  O
  O47      1.0000 0.66213  0.01294  0.02290  Biso   1.000  O
  O48      1.0000 0.66213  0.14016  0.02290  Biso   1.000  O
  O49      1.0000 0.66213  0.52305  0.64001  Biso   1.000  O
  O50      1.0000 0.66213  0.52305  0.51279  Biso   1.000  O
  O51      1.0000 0.27924  0.01294  0.02290  Biso   1.000  O
  O52      1.0000 0.15203  0.14016  0.02290  Biso   1.000  O
  O53      1.0000 0.15203  0.52305  0.02290  Biso   1.000  O
  O54      1.0000 0.27924  0.52305  0.02290  Biso   1.000  O
  O55      1.0000 0.66213  0.01294  0.64001  Biso   1.000  O
  O56      1.0000 0.66213  0.14016  0.51279  Biso   1.000  O
  O57      1.0000 0.07522  0.66175  0.43941  Biso   1.000  O
  O58      1.0000 0.13341  0.60356  0.49760  Biso   1.000  O
  O59      1.0000 0.79741  0.93956  0.16160  Biso   1.000  O
  O60      1.0000 0.73922  0.99775  0.10341  Biso   1.000  O
  O61      1.0000 0.79741  0.93956  0.43941  Biso   1.000  O
  O62      1.0000 0.73922  0.99775  0.49760  Biso   1.000  O
  O63      1.0000 0.07522  0.66175  0.16160  Biso   1.000  O
  O64      1.0000 0.13341  0.60356  0.10341  Biso   1.000  O
  O65      1.0000 0.07522  0.93956  0.16160  Biso   1.000  O
  O66      1.0000 0.13341  0.99775  0.10341  Biso   1.000  O
  O67      1.0000 0.79741  0.66175  0.43941  Biso   1.000  O
  O68      1.0000 0.73922  0.60356  0.49760  Biso   1.000  O
  O69      1.0000 0.30255  0.43785  0.65988  Biso   1.000  O
  O70      1.0000 0.24436  0.49603  0.60170  Biso   1.000  O
  O71      1.0000 0.58036  0.16004  0.93769  Biso   1.000  O
  O72      1.0000 0.63855  0.10185  0.99588  Biso   1.000  O
  O73      1.0000 0.58036  0.43785  0.65988  Biso   1.000  O
  O74      1.0000 0.63855  0.49603  0.60170  Biso   1.000  O
  O75      1.0000 0.30255  0.16004  0.93769  Biso   1.000  O
  O76      1.0000 0.24436  0.10185  0.99588  Biso   1.000  O
  O77      1.0000 0.30255  0.43785  0.93769  Biso   1.000  O
  O78      1.0000 0.24436  0.49603  0.99588  Biso   1.000  O
  O79      1.0000 0.58036  0.16004  0.65988  Biso   1.000  O
  O80      1.0000 0.63855  0.10185  0.60170  Biso   1.000  O
  O81      1.0000 0.93631  0.80066  0.30050  Biso   1.000  O
  O82      1.0000 0.44146  0.29894  0.79879  Biso   1.000  O
  O83      1.0000 0.99163  0.68417  0.47816  Biso   1.000  O
  O84      1.0000 0.11397  0.68417  0.35582  Biso   1.000  O
  O85      1.0000 0.81982  0.85597  0.18402  Biso   1.000  O
  O86      1.0000 0.81982  0.97831  0.18402  Biso   1.000  O
  O87      1.0000 0.81982  0.97831  0.35582  Biso   1.000  O
  O88      1.0000 0.81982  0.85597  0.47816  Biso   1.000  O
  O89      1.0000 0.99163  0.68417  0.18402  Biso   1.000  O
  O90      1.0000 0.11397  0.68417  0.18402  Biso   1.000  O
  O91      1.0000 0.11397  0.85597  0.18402  Biso   1.000  O
  O92      1.0000 0.99163  0.97831  0.18402  Biso   1.000  O
  O93      1.0000 0.81982  0.68417  0.35582  Biso   1.000  O
  O94      1.0000 0.81982  0.68417  0.47816  Biso   1.000  O
  O95      1.0000 0.38614  0.41543  0.62113  Biso   1.000  O
  O96      1.0000 0.26380  0.41543  0.74347  Biso   1.000  O
  O97      1.0000 0.55794  0.12128  0.91528  Biso   1.000  O
  O98      1.0000 0.55795  0.24362  0.91528  Biso   1.000  O
  O99      1.0000 0.55795  0.41543  0.74347  Biso   1.000  O
  O100     1.0000 0.55794  0.41543  0.62113  Biso   1.000  O
  O101     1.0000 0.38614  0.12128  0.91528  Biso   1.000  O
  O102     1.0000 0.26380  0.24362  0.91528  Biso   1.000  O
  O103     1.0000 0.26380  0.41543  0.91528  Biso   1.000  O
  O104     1.0000 0.38614  0.41543  0.91528  Biso   1.000  O
  O105     1.0000 0.55795  0.12128  0.74347  Biso   1.000  O
  O106     1.0000 0.55795  0.24362  0.62113  Biso   1.000  O
