data_image0
_cell_length_a       18.2115
_cell_length_b       18.2115
_cell_length_c       18.2115
_cell_angle_alpha    60
_cell_angle_beta     60
_cell_angle_gamma    60

_symmetry_space_group_name_H-M    "P 1"
_symmetry_int_tables_number       1

loop_
  _symmetry_equiv_pos_as_xyz
  'x, y, z'

loop_
  _atom_site_label
  _atom_site_occupancy
  _atom_site_fract_x
  _atom_site_fract_y
  _atom_site_fract_z
  _atom_site_thermal_displace_type
  _atom_site_B_iso_or_equiv
  _atom_site_type_symbol
  Zn1      1.0000 0.29361  0.29361  0.11917  Biso   1.000  Zn
  Zn2      1.0000 0.29361  0.29361  0.29361  Biso   1.000  Zn
  Zn3      1.0000 0.11917  0.29361  0.29361  Biso   1.000  Zn
  Zn4      1.0000 0.29361  0.11917  0.29361  Biso   1.000  Zn
  Zn5      1.0000 0.70639  0.70639  0.88083  Biso   1.000  Zn
  Zn6      1.0000 0.70639  0.70639  0.70639  Biso   1.000  Zn
  Zn7      1.0000 0.70639  0.88083  0.70639  Biso   1.000  Zn
  Zn8      1.0000 0.88083  0.70639  0.70639  Biso   1.000  Zn
  H1       1.0000 0.45530  0.45530  0.93770  Biso   1.000  H
  H2       1.0000 0.45530  0.45530  0.15170  Biso   1.000  H
  H3       1.0000 0.93770  0.15170  0.45530  Biso   1.000  H
  H4       1.0000 0.15170  0.93770  0.45530  Biso   1.000  H
  H5       1.0000 0.45530  0.93770  0.15170  Biso   1.000  H
  H6       1.0000 0.45530  0.15170  0.93770  Biso   1.000  H
  H7       1.0000 0.93770  0.45530  0.45530  Biso   1.000  H
  H8       1.0000 0.15170  0.45530  0.45530  Biso   1.000  H
  H9       1.0000 0.45530  0.15170  0.45530  Biso   1.000  H
  H10      1.0000 0.45530  0.93770  0.45530  Biso   1.000  H
  H11      1.0000 0.93770  0.45530  0.15170  Biso   1.000  H
  H12      1.0000 0.15170  0.45530  0.93770  Biso   1.000  H
  H13      1.0000 0.54470  0.54470  0.06230  Biso   1.000  H
  H14      1.0000 0.54470  0.54470  0.84830  Biso   1.000  H
  H15      1.0000 0.84830  0.06230  0.54470  Biso   1.000  H
  H16      1.0000 0.06230  0.84830  0.54470  Biso   1.000  H
  H17      1.0000 0.06230  0.54470  0.84830  Biso   1.000  H
  H18      1.0000 0.84830  0.54470  0.06230  Biso   1.000  H
  H19      1.0000 0.54470  0.06230  0.54470  Biso   1.000  H
  H20      1.0000 0.54470  0.84830  0.54470  Biso   1.000  H
  H21      1.0000 0.84830  0.54470  0.54470  Biso   1.000  H
  H22      1.0000 0.06230  0.54470  0.54470  Biso   1.000  H
  H23      1.0000 0.54470  0.06230  0.84830  Biso   1.000  H
  H24      1.0000 0.54470  0.84830  0.06230  Biso   1.000  H
  C1       1.0000 0.47300  0.47300  0.96450  Biso   1.000  C
  C2       1.0000 0.47300  0.47300  0.08950  Biso   1.000  C
  C3       1.0000 0.96450  0.08950  0.47300  Biso   1.000  C
  C4       1.0000 0.08950  0.96450  0.47300  Biso   1.000  C
  C5       1.0000 0.47300  0.96450  0.08950  Biso   1.000  C
  C6       1.0000 0.47300  0.08950  0.96450  Biso   1.000  C
  C7       1.0000 0.96450  0.47300  0.47300  Biso   1.000  C
  C8       1.0000 0.08950  0.47300  0.47300  Biso   1.000  C
  C9       1.0000 0.47300  0.08950  0.47300  Biso   1.000  C
  C10      1.0000 0.47300  0.96450  0.47300  Biso   1.000  C
  C11      1.0000 0.96450  0.47300  0.08950  Biso   1.000  C
  C12      1.0000 0.08950  0.47300  0.96450  Biso   1.000  C
  C13      1.0000 0.52700  0.52700  0.03550  Biso   1.000  C
  C14      1.0000 0.52700  0.52700  0.91050  Biso   1.000  C
  C15      1.0000 0.91050  0.03550  0.52700  Biso   1.000  C
  C16      1.0000 0.03550  0.91050  0.52700  Biso   1.000  C
  C17      1.0000 0.03550  0.52700  0.91050  Biso   1.000  C
  C18      1.0000 0.91050  0.52700  0.03550  Biso   1.000  C
  C19      1.0000 0.52700  0.03550  0.52700  Biso   1.000  C
  C20      1.0000 0.52700  0.91050  0.52700  Biso   1.000  C
  C21      1.0000 0.91050  0.52700  0.52700  Biso   1.000  C
  C22      1.0000 0.03550  0.52700  0.52700  Biso   1.000  C
  C23      1.0000 0.52700  0.03550  0.91050  Biso   1.000  C
  C24      1.0000 0.52700  0.91050  0.03550  Biso   1.000  C
  C25      1.0000 0.38860  0.38860  0.11140  Biso   1.000  C
  C26      1.0000 0.44600  0.44600  0.05400  Biso   1.000  C
  C27      1.0000 0.11140  0.11140  0.38860  Biso   1.000  C
  C28      1.0000 0.05400  0.05400  0.44600  Biso   1.000  C
  C29      1.0000 0.38860  0.11140  0.11140  Biso   1.000  C
  C30      1.0000 0.44600  0.05400  0.05400  Biso   1.000  C
  C31      1.0000 0.11140  0.38860  0.38860  Biso   1.000  C
  C32      1.0000 0.05400  0.44600  0.44600  Biso   1.000  C
  C33      1.0000 0.38860  0.11140  0.38860  Biso   1.000  C
  C34      1.0000 0.44600  0.05400  0.44600  Biso   1.000  C
  C35      1.0000 0.11140  0.38860  0.11140  Biso   1.000  C
  C36      1.0000 0.05400  0.44600  0.05400  Biso   1.000  C
  C37      1.0000 0.61140  0.61140  0.88860  Biso   1.000  C
  C38      1.0000 0.55400  0.55400  0.94600  Biso   1.000  C
  C39      1.0000 0.88860  0.88860  0.61140  Biso   1.000  C
  C40      1.0000 0.94600  0.94600  0.55400  Biso   1.000  C
  C41      1.0000 0.88860  0.61140  0.88860  Biso   1.000  C
  C42      1.0000 0.94600  0.55400  0.94600  Biso   1.000  C
  C43      1.0000 0.61140  0.88860  0.61140  Biso   1.000  C
  C44      1.0000 0.55400  0.94600  0.55400  Biso   1.000  C
  C45      1.0000 0.88860  0.61140  0.61140  Biso   1.000  C
  C46      1.0000 0.94600  0.55400  0.55400  Biso   1.000  C
  C47      1.0000 0.61140  0.88860  0.88860  Biso   1.000  C
  C48      1.0000 0.55400  0.94600  0.94600  Biso   1.000  C
  O1       1.0000 0.25000  0.25000  0.25000  Biso   1.000  O
  O2       1.0000 0.75000  0.75000  0.75000  Biso   1.000  O
  O3       1.0000 0.36611  0.36611  0.07317  Biso   1.000  O
  O4       1.0000 0.36611  0.36611  0.19461  Biso   1.000  O
  O5       1.0000 0.07317  0.19461  0.36611  Biso   1.000  O
  O6       1.0000 0.19461  0.07317  0.36611  Biso   1.000  O
  O7       1.0000 0.36611  0.07317  0.19461  Biso   1.000  O
  O8       1.0000 0.36611  0.19461  0.07317  Biso   1.000  O
  O9       1.0000 0.07317  0.36611  0.36611  Biso   1.000  O
  O10      1.0000 0.19461  0.36611  0.36611  Biso   1.000  O
  O11      1.0000 0.36611  0.19461  0.36611  Biso   1.000  O
  O12      1.0000 0.36611  0.07317  0.36611  Biso   1.000  O
  O13      1.0000 0.07317  0.36611  0.19461  Biso   1.000  O
  O14      1.0000 0.19461  0.36611  0.07317  Biso   1.000  O
  O15      1.0000 0.63389  0.63389  0.92683  Biso   1.000  O
  O16      1.0000 0.63389  0.63389  0.80539  Biso   1.000  O
  O17      1.0000 0.80539  0.92683  0.63389  Biso   1.000  O
  O18      1.0000 0.92683  0.80539  0.63389  Biso   1.000  O
  O19      1.0000 0.92683  0.63389  0.80539  Biso   1.000  O
  O20      1.0000 0.80539  0.63389  0.92683  Biso   1.000  O
  O21      1.0000 0.63389  0.92683  0.63389  Biso   1.000  O
  O22      1.0000 0.63389  0.80539  0.63389  Biso   1.000  O
  O23      1.0000 0.80539  0.63389  0.63389  Biso   1.000  O
  O24      1.0000 0.92683  0.63389  0.63389  Biso   1.000  O
  O25      1.0000 0.63389  0.92683  0.80539  Biso   1.000  O
  O26      1.0000 0.63389  0.80539  0.92683  Biso   1.000  O
  Zn9      1.0000 0.89901  0.75524  0.43401  Biso   1.000  Zn
  Zn10     1.0000 0.07451  0.75524  0.25851  Biso   1.000  Zn
  Zn11     1.0000 0.89901  0.75524  0.25851  Biso   1.000  Zn
  Zn12     1.0000 0.89901  0.93074  0.25851  Biso   1.000  Zn
  Zn13     1.0000 0.50275  0.33766  0.66543  Biso   1.000  Zn
  Zn14     1.0000 0.32725  0.33766  0.84093  Biso   1.000  Zn
  Zn15     1.0000 0.50275  0.16216  0.84093  Biso   1.000  Zn
  Zn16     1.0000 0.50275  0.33766  0.84093  Biso   1.000  Zn
  H25      1.0000 0.04895  0.59213  0.61029  Biso   1.000  H
  H26      1.0000 0.26145  0.59213  0.39779  Biso   1.000  H
  H27      1.0000 0.74656  0.89452  0.09540  Biso   1.000  H
  H28      1.0000 0.74656  0.10701  0.09540  Biso   1.000  H
  H29      1.0000 0.74656  0.10701  0.39779  Biso   1.000  H
  H30      1.0000 0.74656  0.89452  0.61029  Biso   1.000  H
  H31      1.0000 0.04895  0.59213  0.09540  Biso   1.000  H
  H32      1.0000 0.26145  0.59213  0.09540  Biso   1.000  H
  H33      1.0000 0.26145  0.89452  0.09540  Biso   1.000  H
  H34      1.0000 0.04895  0.10701  0.09540  Biso   1.000  H
  H35      1.0000 0.74656  0.59213  0.39779  Biso   1.000  H
  H36      1.0000 0.74656  0.59213  0.61029  Biso   1.000  H
  H37      1.0000 0.35281  0.50077  0.48915  Biso   1.000  H
  H38      1.0000 0.14031  0.50077  0.70165  Biso   1.000  H
  H39      1.0000 0.65520  0.98588  0.00404  Biso   1.000  H
  H40      1.0000 0.65520  0.19838  0.00404  Biso   1.000  H
  H41      1.0000 0.65520  0.50077  0.70165  Biso   1.000  H
  H42      1.0000 0.65520  0.50077  0.48915  Biso   1.000  H
  H43      1.0000 0.35281  0.98588  0.00404  Biso   1.000  H
  H44      1.0000 0.14031  0.19838  0.00404  Biso   1.000  H
  H45      1.0000 0.14031  0.50077  0.00404  Biso   1.000  H
  H46      1.0000 0.35281  0.50077  0.00404  Biso   1.000  H
  H47      1.0000 0.65520  0.98588  0.70165  Biso   1.000  H
  H48      1.0000 0.65520  0.19838  0.48915  Biso   1.000  H
  C49      1.0000 0.11287  0.57357  0.58349  Biso   1.000  C
  C50      1.0000 0.23465  0.57357  0.46172  Biso   1.000  C
  C51      1.0000 0.72800  0.95844  0.07684  Biso   1.000  C
  C52      1.0000 0.72800  0.08022  0.07684  Biso   1.000  C
  C53      1.0000 0.72800  0.08022  0.46172  Biso   1.000  C
  C54      1.0000 0.72800  0.95844  0.58349  Biso   1.000  C
  C55      1.0000 0.11287  0.57357  0.07684  Biso   1.000  C
  C56      1.0000 0.23465  0.57357  0.07684  Biso   1.000  C
  C57      1.0000 0.23465  0.95844  0.07684  Biso   1.000  C
  C58      1.0000 0.11287  0.08022  0.07684  Biso   1.000  C
  C59      1.0000 0.72800  0.57357  0.46172  Biso   1.000  C
  C60      1.0000 0.72800  0.57357  0.58349  Biso   1.000  C
  C61      1.0000 0.28888  0.51933  0.51595  Biso   1.000  C
  C62      1.0000 0.16711  0.51933  0.63773  Biso   1.000  C
  C63      1.0000 0.67376  0.01268  0.02260  Biso   1.000  C
  C64      1.0000 0.67376  0.13445  0.02260  Biso   1.000  C
  C65      1.0000 0.67376  0.51933  0.63773  Biso   1.000  C
  C66      1.0000 0.67376  0.51933  0.51595  Biso   1.000  C
  C67      1.0000 0.28888  0.01268  0.02260  Biso   1.000  C
  C68      1.0000 0.16711  0.13445  0.02260  Biso   1.000  C
  C69      1.0000 0.16711  0.51933  0.02260  Biso   1.000  C
  C70      1.0000 0.28888  0.51933  0.02260  Biso   1.000  C
  C71      1.0000 0.67376  0.01268  0.63773  Biso   1.000  C
  C72      1.0000 0.67376  0.13445  0.51595  Biso   1.000  C
  C73      1.0000 0.08279  0.65921  0.44229  Biso   1.000  C
  C74      1.0000 0.14139  0.60061  0.50089  Biso   1.000  C
  C75      1.0000 0.80298  0.93902  0.16248  Biso   1.000  C
  C76      1.0000 0.74438  0.99762  0.10388  Biso   1.000  C
  C77      1.0000 0.80298  0.93902  0.44229  Biso   1.000  C
  C78      1.0000 0.74438  0.99762  0.50089  Biso   1.000  C
  C79      1.0000 0.08279  0.65921  0.16248  Biso   1.000  C
  C80      1.0000 0.14139  0.60061  0.10388  Biso   1.000  C
  C81      1.0000 0.08279  0.93902  0.16248  Biso   1.000  C
  C82      1.0000 0.14139  0.99762  0.10388  Biso   1.000  C
  C83      1.0000 0.80298  0.65921  0.44229  Biso   1.000  C
  C84      1.0000 0.74438  0.60061  0.50089  Biso   1.000  C
  C85      1.0000 0.31897  0.43369  0.65715  Biso   1.000  C
  C86      1.0000 0.26037  0.49229  0.59855  Biso   1.000  C
  C87      1.0000 0.59878  0.15388  0.93696  Biso   1.000  C
  C88      1.0000 0.65738  0.09528  0.99556  Biso   1.000  C
  C89      1.0000 0.59878  0.43369  0.65715  Biso   1.000  C
  C90      1.0000 0.65738  0.49229  0.59855  Biso   1.000  C
  C91      1.0000 0.31897  0.15388  0.93696  Biso   1.000  C
  C92      1.0000 0.26037  0.09528  0.99556  Biso   1.000  C
  C93      1.0000 0.31897  0.43369  0.93696  Biso   1.000  C
  C94      1.0000 0.26037  0.49229  0.99556  Biso   1.000  C
  C95      1.0000 0.59878  0.15388  0.65715  Biso   1.000  C
  C96      1.0000 0.65738  0.09528  0.59855  Biso   1.000  C
  O27      1.0000 0.94289  0.79911  0.30239  Biso   1.000  O
  O28      1.0000 0.45887  0.29378  0.79706  Biso   1.000  O
  O29      1.0000 0.99842  0.68158  0.48191  Biso   1.000  O
  O30      1.0000 0.12241  0.68158  0.35792  Biso   1.000  O
  O31      1.0000 0.82536  0.85465  0.18486  Biso   1.000  O
  O32      1.0000 0.82536  0.97864  0.18486  Biso   1.000  O
  O33      1.0000 0.82536  0.97864  0.35792  Biso   1.000  O
  O34      1.0000 0.82536  0.85465  0.48191  Biso   1.000  O
  O35      1.0000 0.99842  0.68158  0.18486  Biso   1.000  O
  O36      1.0000 0.12241  0.68158  0.18486  Biso   1.000  O
  O37      1.0000 0.12241  0.85465  0.18486  Biso   1.000  O
  O38      1.0000 0.99842  0.97864  0.18486  Biso   1.000  O
  O39      1.0000 0.82536  0.68158  0.35792  Biso   1.000  O
  O40      1.0000 0.82536  0.68158  0.48191  Biso   1.000  O
  O41      1.0000 0.40334  0.41131  0.61753  Biso   1.000  O
  O42      1.0000 0.27935  0.41131  0.74152  Biso   1.000  O
  O43      1.0000 0.57640  0.11426  0.91459  Biso   1.000  O
  O44      1.0000 0.57640  0.23825  0.91459  Biso   1.000  O
  O45      1.0000 0.57640  0.41131  0.74152  Biso   1.000  O
  O46      1.0000 0.57640  0.41131  0.61753  Biso   1.000  O
  O47      1.0000 0.40334  0.11426  0.91459  Biso   1.000  O
  O48      1.0000 0.27935  0.23825  0.91459  Biso   1.000  O
  O49      1.0000 0.27935  0.41131  0.91459  Biso   1.000  O
  O50      1.0000 0.40334  0.41131  0.91459  Biso   1.000  O
  O51      1.0000 0.57640  0.11426  0.74152  Biso   1.000  O
  O52      1.0000 0.57640  0.23825  0.61753  Biso   1.000  O
