data_image0
_cell_length_a       18.255
_cell_length_b       18.255
_cell_length_c       18.255
_cell_angle_alpha    60
_cell_angle_beta     60
_cell_angle_gamma    60

_symmetry_space_group_name_H-M    "P 1"
_symmetry_int_tables_number       1

loop_
  _symmetry_equiv_pos_as_xyz
  'x, y, z'

loop_
  _atom_site_label
  _atom_site_occupancy
  _atom_site_fract_x
  _atom_site_fract_y
  _atom_site_fract_z
  _atom_site_thermal_displace_type
  _atom_site_B_iso_or_equiv
  _atom_site_type_symbol
  C1       1.0000 0.29354  0.29354  0.11938  Biso   1.000  C
  C2       1.0000 0.29354  0.29354  0.29354  Biso   1.000  C
  C3       1.0000 0.11938  0.29354  0.29354  Biso   1.000  C
  C4       1.0000 0.29354  0.11938  0.29354  Biso   1.000  C
  C5       1.0000 0.70646  0.70646  0.88062  Biso   1.000  C
  C6       1.0000 0.70646  0.70646  0.70646  Biso   1.000  C
  C7       1.0000 0.70646  0.88062  0.70646  Biso   1.000  C
  C8       1.0000 0.88062  0.70646  0.70646  Biso   1.000  C
  C9       1.0000 0.45570  0.45570  0.93630  Biso   1.000  C
  C10      1.0000 0.45570  0.45570  0.15230  Biso   1.000  C
  C11      1.0000 0.93630  0.15230  0.45570  Biso   1.000  C
  C12      1.0000 0.15230  0.93630  0.45570  Biso   1.000  C
  C13      1.0000 0.45570  0.93630  0.15230  Biso   1.000  C
  C14      1.0000 0.45570  0.15230  0.93630  Biso   1.000  C
  C15      1.0000 0.93630  0.45570  0.45570  Biso   1.000  C
  C16      1.0000 0.15230  0.45570  0.45570  Biso   1.000  C
  C17      1.0000 0.45570  0.15230  0.45570  Biso   1.000  C
  C18      1.0000 0.45570  0.93630  0.45570  Biso   1.000  C
  C19      1.0000 0.93630  0.45570  0.15230  Biso   1.000  C
  C20      1.0000 0.15230  0.45570  0.93630  Biso   1.000  C
  C21      1.0000 0.54430  0.54430  0.06370  Biso   1.000  C
  C22      1.0000 0.54430  0.54430  0.84770  Biso   1.000  C
  C23      1.0000 0.84770  0.06370  0.54430  Biso   1.000  C
  C24      1.0000 0.06370  0.84770  0.54430  Biso   1.000  C
  C25      1.0000 0.06370  0.54430  0.84770  Biso   1.000  C
  C26      1.0000 0.84770  0.54430  0.06370  Biso   1.000  C
  C27      1.0000 0.54430  0.06370  0.54430  Biso   1.000  C
  C28      1.0000 0.54430  0.84770  0.54430  Biso   1.000  C
  C29      1.0000 0.84770  0.54430  0.54430  Biso   1.000  C
  C30      1.0000 0.06370  0.54430  0.54430  Biso   1.000  C
  C31      1.0000 0.54430  0.06370  0.84770  Biso   1.000  C
  C32      1.0000 0.54430  0.84770  0.06370  Biso   1.000  C
  C33      1.0000 0.47332  0.47332  0.96310  Biso   1.000  C
  C34      1.0000 0.47332  0.47332  0.09026  Biso   1.000  C
  C35      1.0000 0.96310  0.09026  0.47332  Biso   1.000  C
  C36      1.0000 0.09026  0.96310  0.47332  Biso   1.000  C
  C37      1.0000 0.47332  0.96310  0.09026  Biso   1.000  C
  C38      1.0000 0.47332  0.09026  0.96310  Biso   1.000  C
  C39      1.0000 0.96310  0.47332  0.47332  Biso   1.000  C
  C40      1.0000 0.09026  0.47332  0.47332  Biso   1.000  C
  C41      1.0000 0.47332  0.09026  0.47332  Biso   1.000  C
  C42      1.0000 0.47332  0.96310  0.47332  Biso   1.000  C
  C43      1.0000 0.96310  0.47332  0.09026  Biso   1.000  C
  C44      1.0000 0.09026  0.47332  0.96310  Biso   1.000  C
  C45      1.0000 0.52668  0.52668  0.03690  Biso   1.000  C
  C46      1.0000 0.52668  0.52668  0.90974  Biso   1.000  C
  C47      1.0000 0.90974  0.03690  0.52668  Biso   1.000  C
  C48      1.0000 0.03690  0.90974  0.52668  Biso   1.000  C
  C49      1.0000 0.03690  0.52668  0.90974  Biso   1.000  C
  C50      1.0000 0.90974  0.52668  0.03690  Biso   1.000  C
  C51      1.0000 0.52668  0.03690  0.52668  Biso   1.000  C
  C52      1.0000 0.52668  0.90974  0.52668  Biso   1.000  C
  C53      1.0000 0.90974  0.52668  0.52668  Biso   1.000  C
  C54      1.0000 0.03690  0.52668  0.52668  Biso   1.000  C
  C55      1.0000 0.52668  0.03690  0.90974  Biso   1.000  C
  C56      1.0000 0.52668  0.90974  0.03690  Biso   1.000  C
  C57      1.0000 0.38870  0.38870  0.11130  Biso   1.000  C
  C58      1.0000 0.44580  0.44580  0.05420  Biso   1.000  C
  C59      1.0000 0.11130  0.11130  0.38870  Biso   1.000  C
  C60      1.0000 0.05420  0.05420  0.44580  Biso   1.000  C
  C61      1.0000 0.38870  0.11130  0.11130  Biso   1.000  C
  C62      1.0000 0.44580  0.05420  0.05420  Biso   1.000  C
  C63      1.0000 0.11130  0.38870  0.38870  Biso   1.000  C
  C64      1.0000 0.05420  0.44580  0.44580  Biso   1.000  C
  C65      1.0000 0.38870  0.11130  0.38870  Biso   1.000  C
  C66      1.0000 0.44580  0.05420  0.44580  Biso   1.000  C
  C67      1.0000 0.11130  0.38870  0.11130  Biso   1.000  C
  C68      1.0000 0.05420  0.44580  0.05420  Biso   1.000  C
  C69      1.0000 0.61130  0.61130  0.88870  Biso   1.000  C
  C70      1.0000 0.55420  0.55420  0.94580  Biso   1.000  C
  C71      1.0000 0.88870  0.88870  0.61130  Biso   1.000  C
  C72      1.0000 0.94580  0.94580  0.55420  Biso   1.000  C
  C73      1.0000 0.88870  0.61130  0.88870  Biso   1.000  C
  C74      1.0000 0.94580  0.55420  0.94580  Biso   1.000  C
  C75      1.0000 0.61130  0.88870  0.61130  Biso   1.000  C
  C76      1.0000 0.55420  0.94580  0.55420  Biso   1.000  C
  C77      1.0000 0.88870  0.61130  0.61130  Biso   1.000  C
  C78      1.0000 0.94580  0.55420  0.55420  Biso   1.000  C
  C79      1.0000 0.61130  0.88870  0.88870  Biso   1.000  C
  C80      1.0000 0.55420  0.94580  0.94580  Biso   1.000  C
  C81      1.0000 0.25000  0.25000  0.25000  Biso   1.000  C
  C82      1.0000 0.75000  0.75000  0.75000  Biso   1.000  C
  C83      1.0000 0.36613  0.36613  0.07303  Biso   1.000  C
  C84      1.0000 0.36613  0.36613  0.19471  Biso   1.000  C
  C85      1.0000 0.07303  0.19471  0.36613  Biso   1.000  C
  C86      1.0000 0.19471  0.07303  0.36613  Biso   1.000  C
  C87      1.0000 0.36613  0.07303  0.19471  Biso   1.000  C
  C88      1.0000 0.36613  0.19471  0.07303  Biso   1.000  C
  C89      1.0000 0.07303  0.36613  0.36613  Biso   1.000  C
  C90      1.0000 0.19471  0.36613  0.36613  Biso   1.000  C
  C91      1.0000 0.36613  0.19471  0.36613  Biso   1.000  C
  C92      1.0000 0.36613  0.07303  0.36613  Biso   1.000  C
  C93      1.0000 0.07303  0.36613  0.19471  Biso   1.000  C
  C94      1.0000 0.19471  0.36613  0.07303  Biso   1.000  C
  C95      1.0000 0.63387  0.63387  0.92697  Biso   1.000  C
  C96      1.0000 0.63387  0.63387  0.80529  Biso   1.000  C
  C97      1.0000 0.80529  0.92697  0.63387  Biso   1.000  C
  C98      1.0000 0.92697  0.80529  0.63387  Biso   1.000  C
  C99      1.0000 0.92697  0.63387  0.80529  Biso   1.000  C
  C100     1.0000 0.80529  0.63387  0.92697  Biso   1.000  C
  C101     1.0000 0.63387  0.92697  0.63387  Biso   1.000  C
  C102     1.0000 0.63387  0.80529  0.63387  Biso   1.000  C
  C103     1.0000 0.80529  0.63387  0.63387  Biso   1.000  C
  C104     1.0000 0.92697  0.63387  0.63387  Biso   1.000  C
  C105     1.0000 0.63387  0.92697  0.80529  Biso   1.000  C
  C106     1.0000 0.63387  0.80529  0.92697  Biso   1.000  C
  O1       1.0000 0.50242  0.51995  0.33496  Biso   1.000  O
  O2       1.0000 0.50242  0.51995  0.50879  Biso   1.000  O
  O3       1.0000 0.32858  0.51995  0.50879  Biso   1.000  O
  O4       1.0000 0.50242  0.34612  0.50879  Biso   1.000  O
  O5       1.0000 0.91404  0.93155  0.09423  Biso   1.000  O
  O6       1.0000 0.91404  0.93155  0.92039  Biso   1.000  O
  O7       1.0000 0.91404  0.10539  0.92039  Biso   1.000  O
  O8       1.0000 0.08787  0.93155  0.92039  Biso   1.000  O
  O9       1.0000 0.66406  0.68158  0.15000  Biso   1.000  O
  O10      1.0000 0.66406  0.68158  0.36752  Biso   1.000  O
  O11      1.0000 0.14364  0.37868  0.67042  Biso   1.000  O
  O12      1.0000 0.36116  0.16116  0.67042  Biso   1.000  O
  O13      1.0000 0.66406  0.16116  0.36752  Biso   1.000  O
  O14      1.0000 0.66406  0.37868  0.15000  Biso   1.000  O
  O15      1.0000 0.14364  0.68158  0.67042  Biso   1.000  O
  O16      1.0000 0.36116  0.68158  0.67042  Biso   1.000  O
  O17      1.0000 0.66406  0.37868  0.67042  Biso   1.000  O
  O18      1.0000 0.66406  0.16116  0.67042  Biso   1.000  O
  O19      1.0000 0.14364  0.68158  0.36752  Biso   1.000  O
  O20      1.0000 0.36116  0.68158  0.15000  Biso   1.000  O
  O21      1.0000 0.75240  0.76992  0.27918  Biso   1.000  O
  O22      1.0000 0.75240  0.76992  0.06166  Biso   1.000  O
  O23      1.0000 0.05530  0.29034  0.75876  Biso   1.000  O
  O24      1.0000 0.27282  0.07282  0.75876  Biso   1.000  O
  O25      1.0000 0.27282  0.76992  0.06166  Biso   1.000  O
  O26      1.0000 0.05530  0.76992  0.27918  Biso   1.000  O
  O27      1.0000 0.75240  0.29034  0.75876  Biso   1.000  O
  O28      1.0000 0.75240  0.07282  0.75876  Biso   1.000  O
  O29      1.0000 0.05530  0.76992  0.75876  Biso   1.000  O
  O30      1.0000 0.27282  0.76992  0.75876  Biso   1.000  O
  O31      1.0000 0.75240  0.29034  0.06166  Biso   1.000  O
  O32      1.0000 0.75240  0.07282  0.27918  Biso   1.000  O
  O33      1.0000 0.68171  0.69923  0.17678  Biso   1.000  O
  O34      1.0000 0.68171  0.69923  0.30545  Biso   1.000  O
  O35      1.0000 0.17042  0.31660  0.68807  Biso   1.000  O
  O36      1.0000 0.29908  0.18794  0.68807  Biso   1.000  O
  O37      1.0000 0.68171  0.18794  0.30545  Biso   1.000  O
  O38      1.0000 0.68171  0.31660  0.17678  Biso   1.000  O
  O39      1.0000 0.17042  0.69923  0.68807  Biso   1.000  O
  O40      1.0000 0.29908  0.69923  0.68807  Biso   1.000  O
  O41      1.0000 0.68171  0.31660  0.68807  Biso   1.000  O
  O42      1.0000 0.68171  0.18794  0.68807  Biso   1.000  O
  O43      1.0000 0.17042  0.69923  0.30545  Biso   1.000  O
  O44      1.0000 0.29908  0.69923  0.17678  Biso   1.000  O
  O45      1.0000 0.73475  0.75227  0.25240  Biso   1.000  O
  O46      1.0000 0.73475  0.75227  0.12374  Biso   1.000  O
  O47      1.0000 0.11738  0.26356  0.74111  Biso   1.000  O
  O48      1.0000 0.24604  0.13490  0.74111  Biso   1.000  O
  O49      1.0000 0.24604  0.75227  0.12374  Biso   1.000  O
  O50      1.0000 0.11738  0.75227  0.25240  Biso   1.000  O
  O51      1.0000 0.73475  0.26356  0.74111  Biso   1.000  O
  O52      1.0000 0.73475  0.13490  0.74111  Biso   1.000  O
  O53      1.0000 0.11738  0.75227  0.74111  Biso   1.000  O
  O54      1.0000 0.24604  0.75227  0.74111  Biso   1.000  O
  O55      1.0000 0.73475  0.26356  0.12374  Biso   1.000  O
  O56      1.0000 0.73475  0.13490  0.25240  Biso   1.000  O
  O57      1.0000 0.59706  0.61458  0.32724  Biso   1.000  O
  O58      1.0000 0.65449  0.67201  0.26981  Biso   1.000  O
  O59      1.0000 0.32088  0.33840  0.60342  Biso   1.000  O
  O60      1.0000 0.26345  0.28097  0.66085  Biso   1.000  O
  O61      1.0000 0.59706  0.33840  0.32724  Biso   1.000  O
  O62      1.0000 0.65449  0.28097  0.26981  Biso   1.000  O
  O63      1.0000 0.32088  0.61458  0.60342  Biso   1.000  O
  O64      1.0000 0.26345  0.67201  0.66085  Biso   1.000  O
  O65      1.0000 0.59706  0.33840  0.60342  Biso   1.000  O
  O66      1.0000 0.65449  0.28097  0.66085  Biso   1.000  O
  O67      1.0000 0.32088  0.61458  0.32724  Biso   1.000  O
  O68      1.0000 0.26345  0.67201  0.26981  Biso   1.000  O
  O69      1.0000 0.81940  0.83692  0.10194  Biso   1.000  O
  O70      1.0000 0.76197  0.77949  0.15937  Biso   1.000  O
  O71      1.0000 0.09558  0.11310  0.82576  Biso   1.000  O
  O72      1.0000 0.15301  0.17053  0.76833  Biso   1.000  O
  O73      1.0000 0.09558  0.83692  0.10194  Biso   1.000  O
  O74      1.0000 0.15301  0.77949  0.15937  Biso   1.000  O
  O75      1.0000 0.81940  0.11310  0.82576  Biso   1.000  O
  O76      1.0000 0.76197  0.17053  0.76833  Biso   1.000  O
  O77      1.0000 0.09558  0.83692  0.82576  Biso   1.000  O
  O78      1.0000 0.15301  0.77949  0.76833  Biso   1.000  O
  O79      1.0000 0.81940  0.11310  0.10194  Biso   1.000  O
  O80      1.0000 0.76197  0.17053  0.15937  Biso   1.000  O
  O81      1.0000 0.45897  0.47649  0.46533  Biso   1.000  O
  O82      1.0000 0.95749  0.97501  0.96385  Biso   1.000  O
  O83      1.0000 0.57473  0.59225  0.28907  Biso   1.000  O
  O84      1.0000 0.57473  0.59225  0.41008  Biso   1.000  O
  O85      1.0000 0.28271  0.42123  0.58109  Biso   1.000  O
  O86      1.0000 0.40371  0.30023  0.58109  Biso   1.000  O
  O87      1.0000 0.57473  0.30023  0.41008  Biso   1.000  O
  O88      1.0000 0.57473  0.42123  0.28907  Biso   1.000  O
  O89      1.0000 0.28271  0.59225  0.58109  Biso   1.000  O
  O90      1.0000 0.40371  0.59225  0.58109  Biso   1.000  O
  O91      1.0000 0.57473  0.42123  0.58109  Biso   1.000  O
  O92      1.0000 0.57473  0.30023  0.58109  Biso   1.000  O
  O93      1.0000 0.28271  0.59225  0.41008  Biso   1.000  O
  O94      1.0000 0.40371  0.59225  0.28907  Biso   1.000  O
  O95      1.0000 0.84173  0.85926  0.14011  Biso   1.000  O
  O96      1.0000 0.84173  0.85926  0.01911  Biso   1.000  O
  O97      1.0000 0.01275  0.15127  0.84810  Biso   1.000  O
  O98      1.0000 0.13375  0.03027  0.84810  Biso   1.000  O
  O99      1.0000 0.13375  0.85926  0.01911  Biso   1.000  O
  O100     1.0000 0.01275  0.85926  0.14011  Biso   1.000  O
  O101     1.0000 0.84173  0.15127  0.84810  Biso   1.000  O
  O102     1.0000 0.84173  0.03027  0.84810  Biso   1.000  O
  O103     1.0000 0.01275  0.85926  0.84810  Biso   1.000  O
  O104     1.0000 0.13375  0.85926  0.84810  Biso   1.000  O
  O105     1.0000 0.84173  0.15127  0.01911  Biso   1.000  O
  O106     1.0000 0.84173  0.03027  0.14011  Biso   1.000  O
