data_image0
_cell_length_a       18.2704
_cell_length_b       18.2704
_cell_length_c       18.2704
_cell_angle_alpha    60
_cell_angle_beta     60
_cell_angle_gamma    60

_symmetry_space_group_name_H-M    "P 1"
_symmetry_int_tables_number       1

loop_
  _symmetry_equiv_pos_as_xyz
  'x, y, z'

loop_
  _atom_site_label
  _atom_site_occupancy
  _atom_site_fract_x
  _atom_site_fract_y
  _atom_site_fract_z
  _atom_site_thermal_displace_type
  _atom_site_B_iso_or_equiv
  _atom_site_type_symbol
  Zn1      1.0000 0.29350  0.29349  0.11952  Biso   1.000  Zn
  Zn2      1.0000 0.29350  0.29349  0.29349  Biso   1.000  Zn
  Zn3      1.0000 0.11953  0.29349  0.29349  Biso   1.000  Zn
  Zn4      1.0000 0.29350  0.11952  0.29349  Biso   1.000  Zn
  Zn5      1.0000 0.70650  0.70651  0.88048  Biso   1.000  Zn
  Zn6      1.0000 0.70650  0.70651  0.70651  Biso   1.000  Zn
  Zn7      1.0000 0.70650  0.88048  0.70651  Biso   1.000  Zn
  Zn8      1.0000 0.88047  0.70651  0.70651  Biso   1.000  Zn
  H1       1.0000 0.45540  0.45540  0.93560  Biso   1.000  H
  H2       1.0000 0.45540  0.45540  0.15360  Biso   1.000  H
  H3       1.0000 0.93560  0.15360  0.45540  Biso   1.000  H
  H4       1.0000 0.15360  0.93560  0.45540  Biso   1.000  H
  H5       1.0000 0.45540  0.93560  0.15360  Biso   1.000  H
  H6       1.0000 0.45540  0.15360  0.93560  Biso   1.000  H
  H7       1.0000 0.93560  0.45540  0.45540  Biso   1.000  H
  H8       1.0000 0.15360  0.45540  0.45540  Biso   1.000  H
  H9       1.0000 0.45540  0.15360  0.45540  Biso   1.000  H
  H10      1.0000 0.45540  0.93560  0.45540  Biso   1.000  H
  H11      1.0000 0.93560  0.45540  0.15360  Biso   1.000  H
  H12      1.0000 0.15360  0.45540  0.93560  Biso   1.000  H
  H13      1.0000 0.54460  0.54460  0.06440  Biso   1.000  H
  H14      1.0000 0.54460  0.54460  0.84640  Biso   1.000  H
  H15      1.0000 0.84640  0.06440  0.54460  Biso   1.000  H
  H16      1.0000 0.06440  0.84640  0.54460  Biso   1.000  H
  H17      1.0000 0.06440  0.54460  0.84640  Biso   1.000  H
  H18      1.0000 0.84640  0.54460  0.06440  Biso   1.000  H
  H19      1.0000 0.54460  0.06440  0.54460  Biso   1.000  H
  H20      1.0000 0.54460  0.84640  0.54460  Biso   1.000  H
  H21      1.0000 0.84640  0.54460  0.54460  Biso   1.000  H
  H22      1.0000 0.06440  0.54460  0.54460  Biso   1.000  H
  H23      1.0000 0.54460  0.06440  0.84640  Biso   1.000  H
  H24      1.0000 0.54460  0.84640  0.06440  Biso   1.000  H
  C1       1.0000 0.47338  0.47338  0.96238  Biso   1.000  C
  C2       1.0000 0.47338  0.47338  0.09086  Biso   1.000  C
  C3       1.0000 0.96238  0.09086  0.47338  Biso   1.000  C
  C4       1.0000 0.09086  0.96238  0.47338  Biso   1.000  C
  C5       1.0000 0.47338  0.96238  0.09086  Biso   1.000  C
  C6       1.0000 0.47338  0.09086  0.96238  Biso   1.000  C
  C7       1.0000 0.96238  0.47338  0.47338  Biso   1.000  C
  C8       1.0000 0.09086  0.47338  0.47338  Biso   1.000  C
  C9       1.0000 0.47338  0.09086  0.47338  Biso   1.000  C
  C10      1.0000 0.47338  0.96238  0.47338  Biso   1.000  C
  C11      1.0000 0.96238  0.47338  0.09086  Biso   1.000  C
  C12      1.0000 0.09086  0.47338  0.96238  Biso   1.000  C
  C13      1.0000 0.52662  0.52662  0.03762  Biso   1.000  C
  C14      1.0000 0.52662  0.52662  0.90914  Biso   1.000  C
  C15      1.0000 0.90914  0.03762  0.52662  Biso   1.000  C
  C16      1.0000 0.03762  0.90914  0.52662  Biso   1.000  C
  C17      1.0000 0.03762  0.52662  0.90914  Biso   1.000  C
  C18      1.0000 0.90914  0.52662  0.03762  Biso   1.000  C
  C19      1.0000 0.52662  0.03762  0.52662  Biso   1.000  C
  C20      1.0000 0.52662  0.90914  0.52662  Biso   1.000  C
  C21      1.0000 0.90914  0.52662  0.52662  Biso   1.000  C
  C22      1.0000 0.03762  0.52662  0.52662  Biso   1.000  C
  C23      1.0000 0.52662  0.03762  0.90914  Biso   1.000  C
  C24      1.0000 0.52662  0.90914  0.03762  Biso   1.000  C
  C25      1.0000 0.38861  0.38861  0.11139  Biso   1.000  C
  C26      1.0000 0.44619  0.44619  0.05381  Biso   1.000  C
  C27      1.0000 0.11139  0.11139  0.38861  Biso   1.000  C
  C28      1.0000 0.05381  0.05381  0.44619  Biso   1.000  C
  C29      1.0000 0.38861  0.11139  0.11139  Biso   1.000  C
  C30      1.0000 0.44619  0.05381  0.05381  Biso   1.000  C
  C31      1.0000 0.11139  0.38861  0.38861  Biso   1.000  C
  C32      1.0000 0.05381  0.44619  0.44619  Biso   1.000  C
  C33      1.0000 0.38861  0.11139  0.38861  Biso   1.000  C
  C34      1.0000 0.44619  0.05381  0.44619  Biso   1.000  C
  C35      1.0000 0.11139  0.38861  0.11139  Biso   1.000  C
  C36      1.0000 0.05381  0.44619  0.05381  Biso   1.000  C
  C37      1.0000 0.61139  0.61139  0.88861  Biso   1.000  C
  C38      1.0000 0.55381  0.55381  0.94619  Biso   1.000  C
  C39      1.0000 0.88861  0.88861  0.61139  Biso   1.000  C
  C40      1.0000 0.94619  0.94619  0.55381  Biso   1.000  C
  C41      1.0000 0.88861  0.61139  0.88861  Biso   1.000  C
  C42      1.0000 0.94619  0.55381  0.94619  Biso   1.000  C
  C43      1.0000 0.61139  0.88861  0.61139  Biso   1.000  C
  C44      1.0000 0.55381  0.94619  0.55381  Biso   1.000  C
  C45      1.0000 0.88861  0.61139  0.61139  Biso   1.000  C
  C46      1.0000 0.94619  0.55381  0.55381  Biso   1.000  C
  C47      1.0000 0.61139  0.88861  0.88861  Biso   1.000  C
  C48      1.0000 0.55381  0.94619  0.94619  Biso   1.000  C
  O1       1.0000 0.25000  0.25000  0.25000  Biso   1.000  O
  O2       1.0000 0.75000  0.75000  0.75000  Biso   1.000  O
  O3       1.0000 0.36607  0.36607  0.07299  Biso   1.000  O
  O4       1.0000 0.36607  0.36607  0.19487  Biso   1.000  O
  O5       1.0000 0.07299  0.19487  0.36607  Biso   1.000  O
  O6       1.0000 0.19487  0.07299  0.36607  Biso   1.000  O
  O7       1.0000 0.36607  0.07299  0.19487  Biso   1.000  O
  O8       1.0000 0.36607  0.19487  0.07299  Biso   1.000  O
  O9       1.0000 0.07299  0.36607  0.36607  Biso   1.000  O
  O10      1.0000 0.19487  0.36607  0.36607  Biso   1.000  O
  O11      1.0000 0.36607  0.19487  0.36607  Biso   1.000  O
  O12      1.0000 0.36607  0.07299  0.36607  Biso   1.000  O
  O13      1.0000 0.07299  0.36607  0.19487  Biso   1.000  O
  O14      1.0000 0.19487  0.36607  0.07299  Biso   1.000  O
  O15      1.0000 0.63393  0.63393  0.92701  Biso   1.000  O
  O16      1.0000 0.63393  0.63393  0.80513  Biso   1.000  O
  O17      1.0000 0.80513  0.92701  0.63393  Biso   1.000  O
  O18      1.0000 0.92701  0.80513  0.63393  Biso   1.000  O
  O19      1.0000 0.92701  0.63393  0.80513  Biso   1.000  O
  O20      1.0000 0.80513  0.63393  0.92701  Biso   1.000  O
  O21      1.0000 0.63393  0.92701  0.63393  Biso   1.000  O
  O22      1.0000 0.63393  0.80513  0.63393  Biso   1.000  O
  O23      1.0000 0.80513  0.63393  0.63393  Biso   1.000  O
  O24      1.0000 0.92701  0.63393  0.63393  Biso   1.000  O
  O25      1.0000 0.63393  0.92701  0.80513  Biso   1.000  O
  O26      1.0000 0.63393  0.80513  0.92701  Biso   1.000  O
  Zn9      1.0000 0.17199  0.97250  0.87062  Biso   1.000  Zn
  Zn10     1.0000 0.58579  0.38628  0.45688  Biso   1.000  Zn
  Zn11     1.0000 0.41180  0.56028  0.45688  Biso   1.000  Zn
  Zn12     1.0000 0.99800  0.14650  0.87062  Biso   1.000  Zn
  Zn13     1.0000 0.99780  0.97230  0.04477  Biso   1.000  Zn
  Zn14     1.0000 0.99793  0.97243  0.87041  Biso   1.000  Zn
  Zn15     1.0000 0.58599  0.56048  0.28272  Biso   1.000  Zn
  Zn16     1.0000 0.58586  0.56035  0.45709  Biso   1.000  Zn
  H25      1.0000 0.83562  0.33110  0.01174  Biso   1.000  H
  H26      1.0000 0.83250  0.11337  0.22523  Biso   1.000  H
  H27      1.0000 0.83923  0.32912  0.70981  Biso   1.000  H
  H28      1.0000 0.83872  0.11220  0.70452  Biso   1.000  H
  H29      1.0000 0.35573  0.11280  0.71161  Biso   1.000  H
  H30      1.0000 0.22717  0.72267  0.31576  Biso   1.000  H
  H31      1.0000 0.44493  0.72578  0.10226  Biso   1.000  H
  H32      1.0000 0.22915  0.71906  0.61768  Biso   1.000  H
  H33      1.0000 0.44609  0.71956  0.62297  Biso   1.000  H
  H34      1.0000 0.44549  0.20256  0.61589  Biso   1.000  H
  H35      1.0000 0.74817  0.20168  0.31576  Biso   1.000  H
  H36      1.0000 0.75129  0.41941  0.10226  Biso   1.000  H
  H37      1.0000 0.74456  0.20366  0.61768  Biso   1.000  H
  H38      1.0000 0.74507  0.42058  0.62297  Biso   1.000  H
  H39      1.0000 0.22806  0.41998  0.61589  Biso   1.000  H
  H40      1.0000 0.35661  0.81011  0.01174  Biso   1.000  H
  H41      1.0000 0.13886  0.80700  0.22523  Biso   1.000  H
  H42      1.0000 0.35464  0.81372  0.70981  Biso   1.000  H
  H43      1.0000 0.13770  0.81322  0.70452  Biso   1.000  H
  H44      1.0000 0.13830  0.33022  0.71161  Biso   1.000  H
  H45      1.0000 0.83691  0.81140  0.01104  Biso   1.000  H
  H46      1.0000 0.83420  0.80870  0.22912  Biso   1.000  H
  H47      1.0000 0.74688  0.72138  0.31646  Biso   1.000  H
  H48      1.0000 0.74959  0.72408  0.09837  Biso   1.000  H
  C49      1.0000 0.90346  0.15619  0.05036  Biso   1.000  C
  C50      1.0000 0.84478  0.21307  0.11065  Biso   1.000  C
  C51      1.0000 0.81875  0.30465  0.07392  Biso   1.000  C
  C52      1.0000 0.81694  0.17544  0.19968  Biso   1.000  C
  C53      1.0000 0.90388  0.15501  0.77429  Biso   1.000  C
  C54      1.0000 0.84810  0.21059  0.71750  Biso   1.000  C
  C55      1.0000 0.82037  0.30347  0.69235  Biso   1.000  C
  C56      1.0000 0.81996  0.17407  0.68895  Biso   1.000  C
  C57      1.0000 0.32949  0.17477  0.69215  Biso   1.000  C
  C58      1.0000 0.40211  0.65481  0.27713  Biso   1.000  C
  C59      1.0000 0.34523  0.71350  0.21685  Biso   1.000  C
  C60      1.0000 0.25362  0.73954  0.25358  Biso   1.000  C
  C61      1.0000 0.38285  0.74134  0.12782  Biso   1.000  C
  C62      1.0000 0.40329  0.65440  0.55320  Biso   1.000  C
  C63      1.0000 0.34770  0.71018  0.61000  Biso   1.000  C
  C64      1.0000 0.25480  0.73792  0.63515  Biso   1.000  C
  C65      1.0000 0.38422  0.73832  0.63854  Biso   1.000  C
  C66      1.0000 0.38352  0.22881  0.63535  Biso   1.000  C
  C67      1.0000 0.68033  0.37659  0.27713  Biso   1.000  C
  C68      1.0000 0.73901  0.31971  0.21685  Biso   1.000  C
  C69      1.0000 0.76504  0.22813  0.25358  Biso   1.000  C
  C70      1.0000 0.76685  0.35734  0.12782  Biso   1.000  C
  C71      1.0000 0.67991  0.37777  0.55320  Biso   1.000  C
  C72      1.0000 0.73569  0.32219  0.61000  Biso   1.000  C
  C73      1.0000 0.76342  0.22931  0.63515  Biso   1.000  C
  C74      1.0000 0.76383  0.35871  0.63854  Biso   1.000  C
  C75      1.0000 0.25430  0.35801  0.63535  Biso   1.000  C
  C76      1.0000 0.18168  0.87796  0.05036  Biso   1.000  C
  C77      1.0000 0.23856  0.81928  0.11065  Biso   1.000  C
  C78      1.0000 0.33017  0.79324  0.07392  Biso   1.000  C
  C79      1.0000 0.20093  0.79144  0.19968  Biso   1.000  C
  C80      1.0000 0.18050  0.87838  0.77429  Biso   1.000  C
  C81      1.0000 0.23609  0.82260  0.71750  Biso   1.000  C
  C82      1.0000 0.32899  0.79486  0.69235  Biso   1.000  C
  C83      1.0000 0.19957  0.79446  0.68895  Biso   1.000  C
  C84      1.0000 0.20027  0.30397  0.69215  Biso   1.000  C
  C85      1.0000 0.90177  0.87627  0.05695  Biso   1.000  C
  C86      1.0000 0.84578  0.82028  0.10985  Biso   1.000  C
  C87      1.0000 0.81924  0.79374  0.07292  Biso   1.000  C
  C88      1.0000 0.81684  0.79134  0.20168  Biso   1.000  C
  C89      1.0000 0.17760  0.15211  0.77948  Biso   1.000  C
  C90      1.0000 0.23768  0.21219  0.71760  Biso   1.000  C
  C91      1.0000 0.68202  0.65651  0.27054  Biso   1.000  C
  C92      1.0000 0.73800  0.71250  0.21764  Biso   1.000  C
  C93      1.0000 0.76455  0.73904  0.25457  Biso   1.000  C
  C94      1.0000 0.76695  0.74144  0.12582  Biso   1.000  C
  C95      1.0000 0.40618  0.38067  0.54801  Biso   1.000  C
  C96      1.0000 0.34611  0.32059  0.60990  Biso   1.000  C
  O27      1.0000 0.92352  0.07066  0.09378  Biso   1.000  O
  O28      1.0000 0.92592  0.19661  0.96782  Biso   1.000  O
  O29      1.0000 0.92324  0.06958  0.79954  Biso   1.000  O
  O30      1.0000 0.92543  0.19512  0.79675  Biso   1.000  O
  O31      1.0000 0.21992  0.06928  0.79904  Biso   1.000  O
  O32      1.0000 0.48763  0.63476  0.23371  Biso   1.000  O
  O33      1.0000 0.36169  0.63236  0.35967  Biso   1.000  O
  O34      1.0000 0.48871  0.63504  0.52795  Biso   1.000  O
  O35      1.0000 0.36317  0.63285  0.53075  Biso   1.000  O
  O36      1.0000 0.48901  0.33836  0.52845  Biso   1.000  O
  O37      1.0000 0.66027  0.46212  0.23371  Biso   1.000  O
  O38      1.0000 0.65787  0.33617  0.35967  Biso   1.000  O
  O39      1.0000 0.66055  0.46320  0.52795  Biso   1.000  O
  O40      1.0000 0.65836  0.33766  0.53075  Biso   1.000  O
  O41      1.0000 0.36387  0.46350  0.52845  Biso   1.000  O
  O42      1.0000 0.09616  0.89802  0.09378  Biso   1.000  O
  O43      1.0000 0.22210  0.90042  0.96782  Biso   1.000  O
  O44      1.0000 0.09508  0.89774  0.79954  Biso   1.000  O
  O45      1.0000 0.22062  0.89993  0.79675  Biso   1.000  O
  O46      1.0000 0.09478  0.19442  0.79904  Biso   1.000  O
  O47      1.0000 0.04128  0.01579  0.91442  Biso   1.000  O
  O48      1.0000 0.92492  0.89942  0.09278  Biso   1.000  O
  O49      1.0000 0.92333  0.89783  0.97251  Biso   1.000  O
  O50      1.0000 0.54251  0.51699  0.41307  Biso   1.000  O
  O51      1.0000 0.65887  0.63336  0.23471  Biso   1.000  O
  O52      1.0000 0.66046  0.63495  0.35498  Biso   1.000  O
