data_image0
_cell_length_a       18.2115
_cell_length_b       18.2115
_cell_length_c       18.2115
_cell_angle_alpha    60
_cell_angle_beta     60
_cell_angle_gamma    60

_symmetry_space_group_name_H-M    "P 1"
_symmetry_int_tables_number       1

loop_
  _symmetry_equiv_pos_as_xyz
  'x, y, z'

loop_
  _atom_site_label
  _atom_site_occupancy
  _atom_site_fract_x
  _atom_site_fract_y
  _atom_site_fract_z
  _atom_site_thermal_displace_type
  _atom_site_B_iso_or_equiv
  _atom_site_type_symbol
  C1       1.0000 0.29361  0.29361  0.11917  Biso   1.000  C
  C2       1.0000 0.29361  0.29361  0.29361  Biso   1.000  C
  C3       1.0000 0.11917  0.29361  0.29361  Biso   1.000  C
  C4       1.0000 0.29361  0.11917  0.29361  Biso   1.000  C
  C5       1.0000 0.70639  0.70639  0.88083  Biso   1.000  C
  C6       1.0000 0.70639  0.70639  0.70639  Biso   1.000  C
  C7       1.0000 0.70639  0.88083  0.70639  Biso   1.000  C
  C8       1.0000 0.88083  0.70639  0.70639  Biso   1.000  C
  C9       1.0000 0.45530  0.45530  0.93770  Biso   1.000  C
  C10      1.0000 0.45530  0.45530  0.15170  Biso   1.000  C
  C11      1.0000 0.93770  0.15170  0.45530  Biso   1.000  C
  C12      1.0000 0.15170  0.93770  0.45530  Biso   1.000  C
  C13      1.0000 0.45530  0.93770  0.15170  Biso   1.000  C
  C14      1.0000 0.45530  0.15170  0.93770  Biso   1.000  C
  C15      1.0000 0.93770  0.45530  0.45530  Biso   1.000  C
  C16      1.0000 0.15170  0.45530  0.45530  Biso   1.000  C
  C17      1.0000 0.45530  0.15170  0.45530  Biso   1.000  C
  C18      1.0000 0.45530  0.93770  0.45530  Biso   1.000  C
  C19      1.0000 0.93770  0.45530  0.15170  Biso   1.000  C
  C20      1.0000 0.15170  0.45530  0.93770  Biso   1.000  C
  C21      1.0000 0.54470  0.54470  0.06230  Biso   1.000  C
  C22      1.0000 0.54470  0.54470  0.84830  Biso   1.000  C
  C23      1.0000 0.84830  0.06230  0.54470  Biso   1.000  C
  C24      1.0000 0.06230  0.84830  0.54470  Biso   1.000  C
  C25      1.0000 0.06230  0.54470  0.84830  Biso   1.000  C
  C26      1.0000 0.84830  0.54470  0.06230  Biso   1.000  C
  C27      1.0000 0.54470  0.06230  0.54470  Biso   1.000  C
  C28      1.0000 0.54470  0.84830  0.54470  Biso   1.000  C
  C29      1.0000 0.84830  0.54470  0.54470  Biso   1.000  C
  C30      1.0000 0.06230  0.54470  0.54470  Biso   1.000  C
  C31      1.0000 0.54470  0.06230  0.84830  Biso   1.000  C
  C32      1.0000 0.54470  0.84830  0.06230  Biso   1.000  C
  C33      1.0000 0.47300  0.47300  0.96450  Biso   1.000  C
  C34      1.0000 0.47300  0.47300  0.08950  Biso   1.000  C
  C35      1.0000 0.96450  0.08950  0.47300  Biso   1.000  C
  C36      1.0000 0.08950  0.96450  0.47300  Biso   1.000  C
  C37      1.0000 0.47300  0.96450  0.08950  Biso   1.000  C
  C38      1.0000 0.47300  0.08950  0.96450  Biso   1.000  C
  C39      1.0000 0.96450  0.47300  0.47300  Biso   1.000  C
  C40      1.0000 0.08950  0.47300  0.47300  Biso   1.000  C
  C41      1.0000 0.47300  0.08950  0.47300  Biso   1.000  C
  C42      1.0000 0.47300  0.96450  0.47300  Biso   1.000  C
  C43      1.0000 0.96450  0.47300  0.08950  Biso   1.000  C
  C44      1.0000 0.08950  0.47300  0.96450  Biso   1.000  C
  C45      1.0000 0.52700  0.52700  0.03550  Biso   1.000  C
  C46      1.0000 0.52700  0.52700  0.91050  Biso   1.000  C
  C47      1.0000 0.91050  0.03550  0.52700  Biso   1.000  C
  C48      1.0000 0.03550  0.91050  0.52700  Biso   1.000  C
  C49      1.0000 0.03550  0.52700  0.91050  Biso   1.000  C
  C50      1.0000 0.91050  0.52700  0.03550  Biso   1.000  C
  C51      1.0000 0.52700  0.03550  0.52700  Biso   1.000  C
  C52      1.0000 0.52700  0.91050  0.52700  Biso   1.000  C
  C53      1.0000 0.91050  0.52700  0.52700  Biso   1.000  C
  C54      1.0000 0.03550  0.52700  0.52700  Biso   1.000  C
  C55      1.0000 0.52700  0.03550  0.91050  Biso   1.000  C
  C56      1.0000 0.52700  0.91050  0.03550  Biso   1.000  C
  C57      1.0000 0.38860  0.38860  0.11140  Biso   1.000  C
  C58      1.0000 0.44600  0.44600  0.05400  Biso   1.000  C
  C59      1.0000 0.11140  0.11140  0.38860  Biso   1.000  C
  C60      1.0000 0.05400  0.05400  0.44600  Biso   1.000  C
  C61      1.0000 0.38860  0.11140  0.11140  Biso   1.000  C
  C62      1.0000 0.44600  0.05400  0.05400  Biso   1.000  C
  C63      1.0000 0.11140  0.38860  0.38860  Biso   1.000  C
  C64      1.0000 0.05400  0.44600  0.44600  Biso   1.000  C
  C65      1.0000 0.38860  0.11140  0.38860  Biso   1.000  C
  C66      1.0000 0.44600  0.05400  0.44600  Biso   1.000  C
  C67      1.0000 0.11140  0.38860  0.11140  Biso   1.000  C
  C68      1.0000 0.05400  0.44600  0.05400  Biso   1.000  C
  C69      1.0000 0.61140  0.61140  0.88860  Biso   1.000  C
  C70      1.0000 0.55400  0.55400  0.94600  Biso   1.000  C
  C71      1.0000 0.88860  0.88860  0.61140  Biso   1.000  C
  C72      1.0000 0.94600  0.94600  0.55400  Biso   1.000  C
  C73      1.0000 0.88860  0.61140  0.88860  Biso   1.000  C
  C74      1.0000 0.94600  0.55400  0.94600  Biso   1.000  C
  C75      1.0000 0.61140  0.88860  0.61140  Biso   1.000  C
  C76      1.0000 0.55400  0.94600  0.55400  Biso   1.000  C
  C77      1.0000 0.88860  0.61140  0.61140  Biso   1.000  C
  C78      1.0000 0.94600  0.55400  0.55400  Biso   1.000  C
  C79      1.0000 0.61140  0.88860  0.88860  Biso   1.000  C
  C80      1.0000 0.55400  0.94600  0.94600  Biso   1.000  C
  C81      1.0000 0.25000  0.25000  0.25000  Biso   1.000  C
  C82      1.0000 0.75000  0.75000  0.75000  Biso   1.000  C
  C83      1.0000 0.36611  0.36611  0.07317  Biso   1.000  C
  C84      1.0000 0.36611  0.36611  0.19461  Biso   1.000  C
  C85      1.0000 0.07317  0.19461  0.36611  Biso   1.000  C
  C86      1.0000 0.19461  0.07317  0.36611  Biso   1.000  C
  C87      1.0000 0.36611  0.07317  0.19461  Biso   1.000  C
  C88      1.0000 0.36611  0.19461  0.07317  Biso   1.000  C
  C89      1.0000 0.07317  0.36611  0.36611  Biso   1.000  C
  C90      1.0000 0.19461  0.36611  0.36611  Biso   1.000  C
  C91      1.0000 0.36611  0.19461  0.36611  Biso   1.000  C
  C92      1.0000 0.36611  0.07317  0.36611  Biso   1.000  C
  C93      1.0000 0.07317  0.36611  0.19461  Biso   1.000  C
  C94      1.0000 0.19461  0.36611  0.07317  Biso   1.000  C
  C95      1.0000 0.63389  0.63389  0.92683  Biso   1.000  C
  C96      1.0000 0.63389  0.63389  0.80539  Biso   1.000  C
  C97      1.0000 0.80539  0.92683  0.63389  Biso   1.000  C
  C98      1.0000 0.92683  0.80539  0.63389  Biso   1.000  C
  C99      1.0000 0.92683  0.63389  0.80539  Biso   1.000  C
  C100     1.0000 0.80539  0.63389  0.92683  Biso   1.000  C
  C101     1.0000 0.63389  0.92683  0.63389  Biso   1.000  C
  C102     1.0000 0.63389  0.80539  0.63389  Biso   1.000  C
  C103     1.0000 0.80539  0.63389  0.63389  Biso   1.000  C
  C104     1.0000 0.92683  0.63389  0.63389  Biso   1.000  C
  C105     1.0000 0.63389  0.92683  0.80539  Biso   1.000  C
  C106     1.0000 0.63389  0.80539  0.92683  Biso   1.000  C
  O1       1.0000 0.52809  0.16533  0.64970  Biso   1.000  O
  O2       1.0000 0.52809  0.34061  0.64970  Biso   1.000  O
  O3       1.0000 0.35282  0.34061  0.64970  Biso   1.000  O
  O4       1.0000 0.52810  0.34061  0.47442  Biso   1.000  O
  O5       1.0000 0.95718  0.74739  0.05648  Biso   1.000  O
  O6       1.0000 0.95717  0.92267  0.05649  Biso   1.000  O
  O7       1.0000 0.13245  0.74740  0.05648  Biso   1.000  O
  O8       1.0000 0.95717  0.74740  0.23176  Biso   1.000  O
  O9       1.0000 0.38943  0.97747  0.81296  Biso   1.000  O
  O10      1.0000 0.69136  0.50387  0.51103  Biso   1.000  O
  O11      1.0000 0.16496  0.20194  0.81296  Biso   1.000  O
  O12      1.0000 0.69136  0.50387  0.28656  Biso   1.000  O
  O13      1.0000 0.16496  0.50387  0.51103  Biso   1.000  O
  O14      1.0000 0.69136  0.20194  0.81296  Biso   1.000  O
  O15      1.0000 0.38943  0.50387  0.28656  Biso   1.000  O
  O16      1.0000 0.69136  0.97747  0.81296  Biso   1.000  O
  O17      1.0000 0.69136  0.20194  0.28656  Biso   1.000  O
  O18      1.0000 0.38943  0.50387  0.81296  Biso   1.000  O
  O19      1.0000 0.69136  0.97747  0.51103  Biso   1.000  O
  O20      1.0000 0.16496  0.50387  0.81296  Biso   1.000  O
  O21      1.0000 0.09584  0.58413  0.89322  Biso   1.000  O
  O22      1.0000 0.79391  0.11053  0.19515  Biso   1.000  O
  O23      1.0000 0.32031  0.58413  0.89322  Biso   1.000  O
  O24      1.0000 0.79391  0.88606  0.41962  Biso   1.000  O
  O25      1.0000 0.32031  0.58413  0.19515  Biso   1.000  O
  O26      1.0000 0.79391  0.11053  0.89322  Biso   1.000  O
  O27      1.0000 0.09584  0.58413  0.41962  Biso   1.000  O
  O28      1.0000 0.79391  0.88606  0.89322  Biso   1.000  O
  O29      1.0000 0.79391  0.58413  0.41962  Biso   1.000  O
  O30      1.0000 0.09584  0.11053  0.89322  Biso   1.000  O
  O31      1.0000 0.79391  0.58413  0.19515  Biso   1.000  O
  O32      1.0000 0.32031  0.88606  0.89322  Biso   1.000  O
  O33      1.0000 0.32559  0.00426  0.83148  Biso   1.000  O
  O34      1.0000 0.70988  0.52239  0.44719  Biso   1.000  O
  O35      1.0000 0.19175  0.13810  0.83148  Biso   1.000  O
  O36      1.0000 0.70988  0.52239  0.31335  Biso   1.000  O
  O37      1.0000 0.19175  0.52239  0.44719  Biso   1.000  O
  O38      1.0000 0.70988  0.13810  0.83148  Biso   1.000  O
  O39      1.0000 0.32559  0.52239  0.31335  Biso   1.000  O
  O40      1.0000 0.70988  0.00426  0.83148  Biso   1.000  O
  O41      1.0000 0.70988  0.13810  0.31335  Biso   1.000  O
  O42      1.0000 0.32559  0.52239  0.83148  Biso   1.000  O
  O43      1.0000 0.70988  0.00426  0.44719  Biso   1.000  O
  O44      1.0000 0.19175  0.52239  0.83148  Biso   1.000  O
  O45      1.0000 0.15968  0.56561  0.87470  Biso   1.000  O
  O46      1.0000 0.77539  0.08374  0.25899  Biso   1.000  O
  O47      1.0000 0.29352  0.56561  0.87470  Biso   1.000  O
  O48      1.0000 0.77539  0.94990  0.39283  Biso   1.000  O
  O49      1.0000 0.29352  0.56561  0.25899  Biso   1.000  O
  O50      1.0000 0.77539  0.08374  0.87470  Biso   1.000  O
  O51      1.0000 0.15968  0.56561  0.39283  Biso   1.000  O
  O52      1.0000 0.77539  0.94990  0.87470  Biso   1.000  O
  O53      1.0000 0.77539  0.56561  0.39283  Biso   1.000  O
  O54      1.0000 0.15968  0.08374  0.87470  Biso   1.000  O
  O55      1.0000 0.77539  0.56561  0.25899  Biso   1.000  O
  O56      1.0000 0.29352  0.94990  0.87470  Biso   1.000  O
  O57      1.0000 0.34415  0.15666  0.74600  Biso   1.000  O
  O58      1.0000 0.28590  0.09841  0.80425  Biso   1.000  O
  O59      1.0000 0.62440  0.43691  0.46575  Biso   1.000  O
  O60      1.0000 0.68265  0.49516  0.40750  Biso   1.000  O
  O61      1.0000 0.34415  0.43691  0.46575  Biso   1.000  O
  O62      1.0000 0.28590  0.49516  0.40750  Biso   1.000  O
  O63      1.0000 0.62440  0.15666  0.74600  Biso   1.000  O
  O64      1.0000 0.68265  0.09841  0.80425  Biso   1.000  O
  O65      1.0000 0.62440  0.15666  0.46575  Biso   1.000  O
  O66      1.0000 0.68265  0.09841  0.40750  Biso   1.000  O
  O67      1.0000 0.34415  0.43691  0.74600  Biso   1.000  O
  O68      1.0000 0.28590  0.49516  0.80425  Biso   1.000  O
  O69      1.0000 0.14112  0.65109  0.96018  Biso   1.000  O
  O70      1.0000 0.19937  0.59284  0.90193  Biso   1.000  O
  O71      1.0000 0.86087  0.93134  0.24043  Biso   1.000  O
  O72      1.0000 0.80262  0.98959  0.29868  Biso   1.000  O
  O73      1.0000 0.14112  0.65109  0.24043  Biso   1.000  O
  O74      1.0000 0.19937  0.59284  0.29868  Biso   1.000  O
  O75      1.0000 0.86087  0.93134  0.96018  Biso   1.000  O
  O76      1.0000 0.80262  0.98959  0.90193  Biso   1.000  O
  O77      1.0000 0.86087  0.65109  0.24043  Biso   1.000  O
  O78      1.0000 0.80262  0.59284  0.29868  Biso   1.000  O
  O79      1.0000 0.14112  0.93134  0.96018  Biso   1.000  O
  O80      1.0000 0.19937  0.98959  0.90193  Biso   1.000  O
  O81      1.0000 0.48428  0.29679  0.60588  Biso   1.000  O
  O82      1.0000 0.00099  0.79121  0.10030  Biso   1.000  O
  O83      1.0000 0.42877  0.11708  0.72348  Biso   1.000  O
  O84      1.0000 0.60188  0.41439  0.55037  Biso   1.000  O
  O85      1.0000 0.30457  0.24129  0.72348  Biso   1.000  O
  O86      1.0000 0.60188  0.41439  0.42616  Biso   1.000  O
  O87      1.0000 0.30457  0.41439  0.55037  Biso   1.000  O
  O88      1.0000 0.60188  0.24129  0.72348  Biso   1.000  O
  O89      1.0000 0.42877  0.41439  0.42616  Biso   1.000  O
  O90      1.0000 0.60188  0.11708  0.72348  Biso   1.000  O
  O91      1.0000 0.60188  0.24129  0.42616  Biso   1.000  O
  O92      1.0000 0.42877  0.41439  0.72348  Biso   1.000  O
  O93      1.0000 0.60188  0.11708  0.55037  Biso   1.000  O
  O94      1.0000 0.30457  0.41439  0.72348  Biso   1.000  O
  O95      1.0000 0.05650  0.67361  0.98270  Biso   1.000  O
  O96      1.0000 0.88339  0.97093  0.15580  Biso   1.000  O
  O97      1.0000 0.18070  0.67361  0.98270  Biso   1.000  O
  O98      1.0000 0.88339  0.84672  0.28001  Biso   1.000  O
  O99      1.0000 0.18070  0.67361  0.15580  Biso   1.000  O
  O100     1.0000 0.88339  0.97093  0.98270  Biso   1.000  O
  O101     1.0000 0.05650  0.67361  0.28001  Biso   1.000  O
  O102     1.0000 0.88339  0.84672  0.98270  Biso   1.000  O
  O103     1.0000 0.88339  0.67361  0.28001  Biso   1.000  O
  O104     1.0000 0.05650  0.97093  0.98270  Biso   1.000  O
  O105     1.0000 0.88339  0.67361  0.15580  Biso   1.000  O
  O106     1.0000 0.18070  0.84672  0.98270  Biso   1.000  O
