data_image0
_cell_length_a       18.2751
_cell_length_b       18.2751
_cell_length_c       18.2751
_cell_angle_alpha    60
_cell_angle_beta     60
_cell_angle_gamma    60

_symmetry_space_group_name_H-M    "P 1"
_symmetry_int_tables_number       1

loop_
  _symmetry_equiv_pos_as_xyz
  'x, y, z'

loop_
  _atom_site_label
  _atom_site_occupancy
  _atom_site_fract_x
  _atom_site_fract_y
  _atom_site_fract_z
  _atom_site_thermal_displace_type
  _atom_site_B_iso_or_equiv
  _atom_site_type_symbol
  Zn1      1.0000 0.29350  0.29349  0.11952  Biso   1.000  Zn
  Zn2      1.0000 0.29350  0.29349  0.29349  Biso   1.000  Zn
  Zn3      1.0000 0.11953  0.29349  0.29349  Biso   1.000  Zn
  Zn4      1.0000 0.29350  0.11952  0.29349  Biso   1.000  Zn
  Zn5      1.0000 0.70650  0.70651  0.88048  Biso   1.000  Zn
  Zn6      1.0000 0.70650  0.70651  0.70651  Biso   1.000  Zn
  Zn7      1.0000 0.70650  0.88048  0.70651  Biso   1.000  Zn
  Zn8      1.0000 0.88047  0.70651  0.70651  Biso   1.000  Zn
  H1       1.0000 0.45530  0.45530  0.93570  Biso   1.000  H
  H2       1.0000 0.45530  0.45530  0.15370  Biso   1.000  H
  H3       1.0000 0.93570  0.15370  0.45530  Biso   1.000  H
  H4       1.0000 0.15370  0.93570  0.45530  Biso   1.000  H
  H5       1.0000 0.45530  0.93570  0.15370  Biso   1.000  H
  H6       1.0000 0.45530  0.15370  0.93570  Biso   1.000  H
  H7       1.0000 0.93570  0.45530  0.45530  Biso   1.000  H
  H8       1.0000 0.15370  0.45530  0.45530  Biso   1.000  H
  H9       1.0000 0.45530  0.15370  0.45530  Biso   1.000  H
  H10      1.0000 0.45530  0.93570  0.45530  Biso   1.000  H
  H11      1.0000 0.93570  0.45530  0.15370  Biso   1.000  H
  H12      1.0000 0.15370  0.45530  0.93570  Biso   1.000  H
  H13      1.0000 0.54470  0.54470  0.06430  Biso   1.000  H
  H14      1.0000 0.54470  0.54470  0.84630  Biso   1.000  H
  H15      1.0000 0.84630  0.06430  0.54470  Biso   1.000  H
  H16      1.0000 0.06430  0.84630  0.54470  Biso   1.000  H
  H17      1.0000 0.06430  0.54470  0.84630  Biso   1.000  H
  H18      1.0000 0.84630  0.54470  0.06430  Biso   1.000  H
  H19      1.0000 0.54470  0.06430  0.54470  Biso   1.000  H
  H20      1.0000 0.54470  0.84630  0.54470  Biso   1.000  H
  H21      1.0000 0.84630  0.54470  0.54470  Biso   1.000  H
  H22      1.0000 0.06430  0.54470  0.54470  Biso   1.000  H
  H23      1.0000 0.54470  0.06430  0.84630  Biso   1.000  H
  H24      1.0000 0.54470  0.84630  0.06430  Biso   1.000  H
  C1       1.0000 0.47331  0.47331  0.96231  Biso   1.000  C
  C2       1.0000 0.47331  0.47331  0.09107  Biso   1.000  C
  C3       1.0000 0.96231  0.09107  0.47331  Biso   1.000  C
  C4       1.0000 0.09107  0.96231  0.47331  Biso   1.000  C
  C5       1.0000 0.47331  0.96231  0.09107  Biso   1.000  C
  C6       1.0000 0.47331  0.09107  0.96231  Biso   1.000  C
  C7       1.0000 0.96231  0.47331  0.47331  Biso   1.000  C
  C8       1.0000 0.09107  0.47331  0.47331  Biso   1.000  C
  C9       1.0000 0.47331  0.09107  0.47331  Biso   1.000  C
  C10      1.0000 0.47331  0.96231  0.47331  Biso   1.000  C
  C11      1.0000 0.96231  0.47331  0.09107  Biso   1.000  C
  C12      1.0000 0.09107  0.47331  0.96231  Biso   1.000  C
  C13      1.0000 0.52669  0.52669  0.03769  Biso   1.000  C
  C14      1.0000 0.52669  0.52669  0.90893  Biso   1.000  C
  C15      1.0000 0.90893  0.03769  0.52669  Biso   1.000  C
  C16      1.0000 0.03769  0.90893  0.52669  Biso   1.000  C
  C17      1.0000 0.03769  0.52669  0.90893  Biso   1.000  C
  C18      1.0000 0.90893  0.52669  0.03769  Biso   1.000  C
  C19      1.0000 0.52669  0.03769  0.52669  Biso   1.000  C
  C20      1.0000 0.52669  0.90893  0.52669  Biso   1.000  C
  C21      1.0000 0.90893  0.52669  0.52669  Biso   1.000  C
  C22      1.0000 0.03769  0.52669  0.52669  Biso   1.000  C
  C23      1.0000 0.52669  0.03769  0.90893  Biso   1.000  C
  C24      1.0000 0.52669  0.90893  0.03769  Biso   1.000  C
  C25      1.0000 0.38853  0.38853  0.11147  Biso   1.000  C
  C26      1.0000 0.44625  0.44625  0.05375  Biso   1.000  C
  C27      1.0000 0.11147  0.11147  0.38853  Biso   1.000  C
  C28      1.0000 0.05375  0.05375  0.44625  Biso   1.000  C
  C29      1.0000 0.38853  0.11147  0.11147  Biso   1.000  C
  C30      1.0000 0.44625  0.05375  0.05375  Biso   1.000  C
  C31      1.0000 0.11147  0.38853  0.38853  Biso   1.000  C
  C32      1.0000 0.05375  0.44625  0.44625  Biso   1.000  C
  C33      1.0000 0.38853  0.11147  0.38853  Biso   1.000  C
  C34      1.0000 0.44625  0.05375  0.44625  Biso   1.000  C
  C35      1.0000 0.11147  0.38853  0.11147  Biso   1.000  C
  C36      1.0000 0.05375  0.44625  0.05375  Biso   1.000  C
  C37      1.0000 0.61147  0.61147  0.88853  Biso   1.000  C
  C38      1.0000 0.55375  0.55375  0.94625  Biso   1.000  C
  C39      1.0000 0.88853  0.88853  0.61147  Biso   1.000  C
  C40      1.0000 0.94625  0.94625  0.55375  Biso   1.000  C
  C41      1.0000 0.88853  0.61147  0.88853  Biso   1.000  C
  C42      1.0000 0.94625  0.55375  0.94625  Biso   1.000  C
  C43      1.0000 0.61147  0.88853  0.61147  Biso   1.000  C
  C44      1.0000 0.55375  0.94625  0.55375  Biso   1.000  C
  C45      1.0000 0.88853  0.61147  0.61147  Biso   1.000  C
  C46      1.0000 0.94625  0.55375  0.55375  Biso   1.000  C
  C47      1.0000 0.61147  0.88853  0.88853  Biso   1.000  C
  C48      1.0000 0.55375  0.94625  0.94625  Biso   1.000  C
  O1       1.0000 0.25000  0.25000  0.25000  Biso   1.000  O
  O2       1.0000 0.75000  0.75000  0.75000  Biso   1.000  O
  O3       1.0000 0.36609  0.36609  0.07299  Biso   1.000  O
  O4       1.0000 0.36609  0.36609  0.19483  Biso   1.000  O
  O5       1.0000 0.07299  0.19483  0.36609  Biso   1.000  O
  O6       1.0000 0.19483  0.07299  0.36609  Biso   1.000  O
  O7       1.0000 0.36609  0.07299  0.19483  Biso   1.000  O
  O8       1.0000 0.36609  0.19483  0.07299  Biso   1.000  O
  O9       1.0000 0.07299  0.36609  0.36609  Biso   1.000  O
  O10      1.0000 0.19483  0.36609  0.36609  Biso   1.000  O
  O11      1.0000 0.36609  0.19483  0.36609  Biso   1.000  O
  O12      1.0000 0.36609  0.07299  0.36609  Biso   1.000  O
  O13      1.0000 0.07299  0.36609  0.19483  Biso   1.000  O
  O14      1.0000 0.19483  0.36609  0.07299  Biso   1.000  O
  O15      1.0000 0.63391  0.63391  0.92701  Biso   1.000  O
  O16      1.0000 0.63391  0.63391  0.80517  Biso   1.000  O
  O17      1.0000 0.80517  0.92701  0.63391  Biso   1.000  O
  O18      1.0000 0.92701  0.80517  0.63391  Biso   1.000  O
  O19      1.0000 0.92701  0.63391  0.80517  Biso   1.000  O
  O20      1.0000 0.80517  0.63391  0.92701  Biso   1.000  O
  O21      1.0000 0.63391  0.92701  0.63391  Biso   1.000  O
  O22      1.0000 0.63391  0.80517  0.63391  Biso   1.000  O
  O23      1.0000 0.80517  0.63391  0.63391  Biso   1.000  O
  O24      1.0000 0.92701  0.63391  0.63391  Biso   1.000  O
  O25      1.0000 0.63391  0.92701  0.80517  Biso   1.000  O
  O26      1.0000 0.63391  0.80517  0.92701  Biso   1.000  O
  Zn9      1.0000 0.76494  0.26100  0.38004  Biso   1.000  Zn
  Zn10     1.0000 0.57818  0.26100  0.56679  Biso   1.000  Zn
  Zn11     1.0000 0.57818  0.44776  0.38004  Biso   1.000  Zn
  Zn12     1.0000 0.57818  0.26100  0.38004  Biso   1.000  Zn
  Zn13     1.0000 0.15530  0.85437  0.80294  Biso   1.000  Zn
  Zn14     1.0000 0.98483  0.85437  0.97341  Biso   1.000  Zn
  Zn15     1.0000 0.15530  0.85437  0.97341  Biso   1.000  Zn
  Zn16     1.0000 0.15530  0.68390  0.97341  Biso   1.000  Zn
  H25      1.0000 0.01342  0.01608  0.62140  Biso   1.000  H
  H26      1.0000 0.80329  0.01608  0.83153  Biso   1.000  H
  H27      1.0000 0.31701  0.71249  0.13512  Biso   1.000  H
  H28      1.0000 0.31701  0.50236  0.13512  Biso   1.000  H
  H29      1.0000 0.31701  0.50236  0.83153  Biso   1.000  H
  H30      1.0000 0.31701  0.71249  0.62140  Biso   1.000  H
  H31      1.0000 0.01342  0.01608  0.13512  Biso   1.000  H
  H32      1.0000 0.80329  0.01608  0.13512  Biso   1.000  H
  H33      1.0000 0.80329  0.71249  0.13512  Biso   1.000  H
  H34      1.0000 0.01342  0.50236  0.13512  Biso   1.000  H
  H35      1.0000 0.31701  0.01608  0.83153  Biso   1.000  H
  H36      1.0000 0.31701  0.01608  0.62140  Biso   1.000  H
  C49      1.0000 0.90452  0.08228  0.59789  Biso   1.000  C
  C50      1.0000 0.95213  0.03251  0.64983  Biso   1.000  C
  C51      1.0000 0.77978  0.08228  0.72263  Biso   1.000  C
  C52      1.0000 0.83172  0.03251  0.77024  Biso   1.000  C
  C53      1.0000 0.38321  0.60359  0.20132  Biso   1.000  C
  C54      1.0000 0.33344  0.65120  0.15155  Biso   1.000  C
  C55      1.0000 0.38321  0.47885  0.20132  Biso   1.000  C
  C56      1.0000 0.33344  0.53079  0.15155  Biso   1.000  C
  C57      1.0000 0.38321  0.47885  0.72263  Biso   1.000  C
  C58      1.0000 0.33344  0.53079  0.77024  Biso   1.000  C
  C59      1.0000 0.38321  0.60359  0.59789  Biso   1.000  C
  C60      1.0000 0.33344  0.65120  0.64983  Biso   1.000  C
  C61      1.0000 0.90452  0.08228  0.20132  Biso   1.000  C
  C62      1.0000 0.95213  0.03251  0.15155  Biso   1.000  C
  C63      1.0000 0.77978  0.08228  0.20132  Biso   1.000  C
  C64      1.0000 0.83172  0.03251  0.15155  Biso   1.000  C
  C65      1.0000 0.77978  0.60359  0.20132  Biso   1.000  C
  C66      1.0000 0.83172  0.65120  0.15155  Biso   1.000  C
  C67      1.0000 0.90452  0.47885  0.20132  Biso   1.000  C
  C68      1.0000 0.95213  0.53079  0.15155  Biso   1.000  C
  C69      1.0000 0.38321  0.08228  0.72263  Biso   1.000  C
  C70      1.0000 0.33344  0.03251  0.77024  Biso   1.000  C
  C71      1.0000 0.38321  0.08228  0.59789  Biso   1.000  C
  C72      1.0000 0.33344  0.03251  0.64983  Biso   1.000  C
  C73      1.0000 0.75509  0.16935  0.57320  Biso   1.000  C
  C74      1.0000 0.81805  0.10639  0.63616  Biso   1.000  C
  C75      1.0000 0.97338  0.95105  0.79149  Biso   1.000  C
  C76      1.0000 0.92370  0.00073  0.74181  Biso   1.000  C
  C77      1.0000 0.47027  0.45416  0.28838  Biso   1.000  C
  C78      1.0000 0.40731  0.51712  0.22542  Biso   1.000  C
  C79      1.0000 0.25198  0.67245  0.07009  Biso   1.000  C
  C80      1.0000 0.30166  0.62277  0.11977  Biso   1.000  C
  C81      1.0000 0.47027  0.45416  0.57320  Biso   1.000  C
  C82      1.0000 0.40731  0.51712  0.63616  Biso   1.000  C
  C83      1.0000 0.25198  0.67245  0.79149  Biso   1.000  C
  C84      1.0000 0.30166  0.62277  0.74181  Biso   1.000  C
  C85      1.0000 0.75509  0.16935  0.28838  Biso   1.000  C
  C86      1.0000 0.81805  0.10639  0.22542  Biso   1.000  C
  C87      1.0000 0.97338  0.95105  0.07009  Biso   1.000  C
  C88      1.0000 0.92370  0.00073  0.11977  Biso   1.000  C
  C89      1.0000 0.75509  0.45416  0.28838  Biso   1.000  C
  C90      1.0000 0.81805  0.51712  0.22542  Biso   1.000  C
  C91      1.0000 0.97338  0.67245  0.07009  Biso   1.000  C
  C92      1.0000 0.92370  0.62277  0.11977  Biso   1.000  C
  C93      1.0000 0.47027  0.16935  0.57320  Biso   1.000  C
  C94      1.0000 0.40731  0.10639  0.63616  Biso   1.000  C
  C95      1.0000 0.25198  0.95105  0.79149  Biso   1.000  C
  C96      1.0000 0.30166  0.00073  0.74181  Biso   1.000  C
  O27      1.0000 0.11268  0.81175  0.93079  Biso   1.000  O
  O28      1.0000 0.63706  0.30363  0.42267  Biso   1.000  O
  O29      1.0000 0.79326  0.19099  0.49174  Biso   1.000  O
  O30      1.0000 0.05730  0.92656  0.75657  Biso   1.000  O
  O31      1.0000 0.67363  0.19099  0.61137  Biso   1.000  O
  O32      1.0000 0.93846  0.92656  0.87541  Biso   1.000  O
  O33      1.0000 0.49192  0.49233  0.31003  Biso   1.000  O
  O34      1.0000 0.22749  0.75637  0.04560  Biso   1.000  O
  O35      1.0000 0.49192  0.37271  0.31003  Biso   1.000  O
  O36      1.0000 0.22749  0.63753  0.04560  Biso   1.000  O
  O37      1.0000 0.49192  0.37271  0.61137  Biso   1.000  O
  O38      1.0000 0.22749  0.63753  0.87541  Biso   1.000  O
  O39      1.0000 0.49192  0.49233  0.49174  Biso   1.000  O
  O40      1.0000 0.22749  0.75637  0.75657  Biso   1.000  O
  O41      1.0000 0.79326  0.19099  0.31003  Biso   1.000  O
  O42      1.0000 0.05730  0.92656  0.04560  Biso   1.000  O
  O43      1.0000 0.67363  0.19099  0.31003  Biso   1.000  O
  O44      1.0000 0.93846  0.92656  0.04560  Biso   1.000  O
  O45      1.0000 0.67363  0.49233  0.31003  Biso   1.000  O
  O46      1.0000 0.93846  0.75637  0.04560  Biso   1.000  O
  O47      1.0000 0.79326  0.37271  0.31003  Biso   1.000  O
  O48      1.0000 0.05730  0.63753  0.04560  Biso   1.000  O
  O49      1.0000 0.49192  0.19099  0.61137  Biso   1.000  O
  O50      1.0000 0.22749  0.92656  0.87541  Biso   1.000  O
  O51      1.0000 0.49192  0.19099  0.49174  Biso   1.000  O
  O52      1.0000 0.22749  0.92656  0.75657  Biso   1.000  O
