data_image0
_cell_length_a       18.2507
_cell_length_b       18.2507
_cell_length_c       18.2507
_cell_angle_alpha    60
_cell_angle_beta     60
_cell_angle_gamma    60

_symmetry_space_group_name_H-M    "P 1"
_symmetry_int_tables_number       1

loop_
  _symmetry_equiv_pos_as_xyz
  'x, y, z'

loop_
  _atom_site_label
  _atom_site_occupancy
  _atom_site_fract_x
  _atom_site_fract_y
  _atom_site_fract_z
  _atom_site_thermal_displace_type
  _atom_site_B_iso_or_equiv
  _atom_site_type_symbol
  Zn1      1.0000 0.29354  0.29353  0.11940  Biso   1.000  Zn
  Zn2      1.0000 0.29354  0.29353  0.29353  Biso   1.000  Zn
  Zn3      1.0000 0.11941  0.29353  0.29353  Biso   1.000  Zn
  Zn4      1.0000 0.29354  0.11940  0.29353  Biso   1.000  Zn
  Zn5      1.0000 0.70646  0.70647  0.88060  Biso   1.000  Zn
  Zn6      1.0000 0.70646  0.70647  0.70647  Biso   1.000  Zn
  Zn7      1.0000 0.70646  0.88060  0.70647  Biso   1.000  Zn
  Zn8      1.0000 0.88059  0.70647  0.70647  Biso   1.000  Zn
  H1       1.0000 0.45580  0.45580  0.93620  Biso   1.000  H
  H2       1.0000 0.45580  0.45580  0.15220  Biso   1.000  H
  H3       1.0000 0.93620  0.15220  0.45580  Biso   1.000  H
  H4       1.0000 0.15220  0.93620  0.45580  Biso   1.000  H
  H5       1.0000 0.45580  0.93620  0.15220  Biso   1.000  H
  H6       1.0000 0.45580  0.15220  0.93620  Biso   1.000  H
  H7       1.0000 0.93620  0.45580  0.45580  Biso   1.000  H
  H8       1.0000 0.15220  0.45580  0.45580  Biso   1.000  H
  H9       1.0000 0.45580  0.15220  0.45580  Biso   1.000  H
  H10      1.0000 0.45580  0.93620  0.45580  Biso   1.000  H
  H11      1.0000 0.93620  0.45580  0.15220  Biso   1.000  H
  H12      1.0000 0.15220  0.45580  0.93620  Biso   1.000  H
  H13      1.0000 0.54420  0.54420  0.06380  Biso   1.000  H
  H14      1.0000 0.54420  0.54420  0.84780  Biso   1.000  H
  H15      1.0000 0.84780  0.06380  0.54420  Biso   1.000  H
  H16      1.0000 0.06380  0.84780  0.54420  Biso   1.000  H
  H17      1.0000 0.06380  0.54420  0.84780  Biso   1.000  H
  H18      1.0000 0.84780  0.54420  0.06380  Biso   1.000  H
  H19      1.0000 0.54420  0.06380  0.54420  Biso   1.000  H
  H20      1.0000 0.54420  0.84780  0.54420  Biso   1.000  H
  H21      1.0000 0.84780  0.54420  0.54420  Biso   1.000  H
  H22      1.0000 0.06380  0.54420  0.54420  Biso   1.000  H
  H23      1.0000 0.54420  0.06380  0.84780  Biso   1.000  H
  H24      1.0000 0.54420  0.84780  0.06380  Biso   1.000  H
  C1       1.0000 0.47349  0.47349  0.96297  Biso   1.000  C
  C2       1.0000 0.47349  0.47349  0.09005  Biso   1.000  C
  C3       1.0000 0.96297  0.09005  0.47349  Biso   1.000  C
  C4       1.0000 0.09005  0.96297  0.47349  Biso   1.000  C
  C5       1.0000 0.47349  0.96297  0.09005  Biso   1.000  C
  C6       1.0000 0.47349  0.09005  0.96297  Biso   1.000  C
  C7       1.0000 0.96297  0.47349  0.47349  Biso   1.000  C
  C8       1.0000 0.09005  0.47349  0.47349  Biso   1.000  C
  C9       1.0000 0.47349  0.09005  0.47349  Biso   1.000  C
  C10      1.0000 0.47349  0.96297  0.47349  Biso   1.000  C
  C11      1.0000 0.96297  0.47349  0.09005  Biso   1.000  C
  C12      1.0000 0.09005  0.47349  0.96297  Biso   1.000  C
  C13      1.0000 0.52651  0.52651  0.03703  Biso   1.000  C
  C14      1.0000 0.52651  0.52651  0.90995  Biso   1.000  C
  C15      1.0000 0.90995  0.03703  0.52651  Biso   1.000  C
  C16      1.0000 0.03703  0.90995  0.52651  Biso   1.000  C
  C17      1.0000 0.03703  0.52651  0.90995  Biso   1.000  C
  C18      1.0000 0.90995  0.52651  0.03703  Biso   1.000  C
  C19      1.0000 0.52651  0.03703  0.52651  Biso   1.000  C
  C20      1.0000 0.52651  0.90995  0.52651  Biso   1.000  C
  C21      1.0000 0.90995  0.52651  0.52651  Biso   1.000  C
  C22      1.0000 0.03703  0.52651  0.52651  Biso   1.000  C
  C23      1.0000 0.52651  0.03703  0.90995  Biso   1.000  C
  C24      1.0000 0.52651  0.90995  0.03703  Biso   1.000  C
  C25      1.0000 0.38859  0.38859  0.11141  Biso   1.000  C
  C26      1.0000 0.44630  0.44630  0.05370  Biso   1.000  C
  C27      1.0000 0.11141  0.11141  0.38859  Biso   1.000  C
  C28      1.0000 0.05370  0.05370  0.44630  Biso   1.000  C
  C29      1.0000 0.38859  0.11141  0.11141  Biso   1.000  C
  C30      1.0000 0.44630  0.05370  0.05370  Biso   1.000  C
  C31      1.0000 0.11141  0.38859  0.38859  Biso   1.000  C
  C32      1.0000 0.05370  0.44630  0.44630  Biso   1.000  C
  C33      1.0000 0.38859  0.11141  0.38859  Biso   1.000  C
  C34      1.0000 0.44630  0.05370  0.44630  Biso   1.000  C
  C35      1.0000 0.11141  0.38859  0.11141  Biso   1.000  C
  C36      1.0000 0.05370  0.44630  0.05370  Biso   1.000  C
  C37      1.0000 0.61141  0.61141  0.88859  Biso   1.000  C
  C38      1.0000 0.55370  0.55370  0.94630  Biso   1.000  C
  C39      1.0000 0.88859  0.88859  0.61141  Biso   1.000  C
  C40      1.0000 0.94630  0.94630  0.55370  Biso   1.000  C
  C41      1.0000 0.88859  0.61141  0.88859  Biso   1.000  C
  C42      1.0000 0.94630  0.55370  0.94630  Biso   1.000  C
  C43      1.0000 0.61141  0.88859  0.61141  Biso   1.000  C
  C44      1.0000 0.55370  0.94630  0.55370  Biso   1.000  C
  C45      1.0000 0.88859  0.61141  0.61141  Biso   1.000  C
  C46      1.0000 0.94630  0.55370  0.55370  Biso   1.000  C
  C47      1.0000 0.61141  0.88859  0.88859  Biso   1.000  C
  C48      1.0000 0.55370  0.94630  0.94630  Biso   1.000  C
  O1       1.0000 0.25000  0.25000  0.25000  Biso   1.000  O
  O2       1.0000 0.75000  0.75000  0.75000  Biso   1.000  O
  O3       1.0000 0.36605  0.36605  0.07321  Biso   1.000  O
  O4       1.0000 0.36605  0.36605  0.19469  Biso   1.000  O
  O5       1.0000 0.07321  0.19469  0.36605  Biso   1.000  O
  O6       1.0000 0.19469  0.07321  0.36605  Biso   1.000  O
  O7       1.0000 0.36605  0.07321  0.19469  Biso   1.000  O
  O8       1.0000 0.36605  0.19469  0.07321  Biso   1.000  O
  O9       1.0000 0.07321  0.36605  0.36605  Biso   1.000  O
  O10      1.0000 0.19469  0.36605  0.36605  Biso   1.000  O
  O11      1.0000 0.36605  0.19469  0.36605  Biso   1.000  O
  O12      1.0000 0.36605  0.07321  0.36605  Biso   1.000  O
  O13      1.0000 0.07321  0.36605  0.19469  Biso   1.000  O
  O14      1.0000 0.19469  0.36605  0.07321  Biso   1.000  O
  O15      1.0000 0.63395  0.63395  0.92679  Biso   1.000  O
  O16      1.0000 0.63395  0.63395  0.80531  Biso   1.000  O
  O17      1.0000 0.80531  0.92679  0.63395  Biso   1.000  O
  O18      1.0000 0.92679  0.80531  0.63395  Biso   1.000  O
  O19      1.0000 0.92679  0.63395  0.80531  Biso   1.000  O
  O20      1.0000 0.80531  0.63395  0.92679  Biso   1.000  O
  O21      1.0000 0.63395  0.92679  0.63395  Biso   1.000  O
  O22      1.0000 0.63395  0.80531  0.63395  Biso   1.000  O
  O23      1.0000 0.80531  0.63395  0.63395  Biso   1.000  O
  O24      1.0000 0.92679  0.63395  0.63395  Biso   1.000  O
  O25      1.0000 0.63395  0.92679  0.80531  Biso   1.000  O
  O26      1.0000 0.63395  0.80531  0.92679  Biso   1.000  O
  Zn9      1.0000 0.59447  0.07920  0.71987  Biso   1.000  Zn
  Zn10     1.0000 0.59447  0.25357  0.71987  Biso   1.000  Zn
  Zn11     1.0000 0.42011  0.25357  0.71987  Biso   1.000  Zn
  Zn12     1.0000 0.59447  0.25357  0.54550  Biso   1.000  Zn
  Zn13     1.0000 0.01260  0.66461  0.13091  Biso   1.000  Zn
  Zn14     1.0000 0.01260  0.83897  0.13091  Biso   1.000  Zn
  Zn15     1.0000 0.18696  0.66461  0.13091  Biso   1.000  Zn
  Zn16     1.0000 0.01260  0.66461  0.30527  Biso   1.000  Zn
  H25      1.0000 0.45594  0.89345  0.88200  Biso   1.000  H
  H26      1.0000 0.75660  0.41570  0.58134  Biso   1.000  H
  H27      1.0000 0.23436  0.11504  0.88200  Biso   1.000  H
  H28      1.0000 0.75660  0.41570  0.35976  Biso   1.000  H
  H29      1.0000 0.23436  0.41570  0.58134  Biso   1.000  H
  H30      1.0000 0.75660  0.11504  0.88200  Biso   1.000  H
  H31      1.0000 0.45594  0.41570  0.35976  Biso   1.000  H
  H32      1.0000 0.75660  0.89345  0.88200  Biso   1.000  H
  H33      1.0000 0.75660  0.11504  0.35976  Biso   1.000  H
  H34      1.0000 0.45594  0.41570  0.88200  Biso   1.000  H
  H35      1.0000 0.75660  0.89345  0.58134  Biso   1.000  H
  H36      1.0000 0.23436  0.41570  0.88200  Biso   1.000  H
  H37      1.0000 0.15113  0.50247  0.96878  Biso   1.000  H
  H38      1.0000 0.85046  0.02472  0.26944  Biso   1.000  H
  H39      1.0000 0.37271  0.50247  0.96878  Biso   1.000  H
  H40      1.0000 0.85046  0.80314  0.49102  Biso   1.000  H
  H41      1.0000 0.37271  0.50247  0.26944  Biso   1.000  H
  H42      1.0000 0.85047  0.02472  0.96878  Biso   1.000  H
  H43      1.0000 0.15113  0.50247  0.49102  Biso   1.000  H
  H44      1.0000 0.85046  0.80313  0.96878  Biso   1.000  H
  H45      1.0000 0.85047  0.50247  0.49102  Biso   1.000  H
  H46      1.0000 0.15113  0.02472  0.96878  Biso   1.000  H
  H47      1.0000 0.85047  0.50247  0.26944  Biso   1.000  H
  H48      1.0000 0.37271  0.80313  0.96878  Biso   1.000  H
  C49      1.0000 0.39236  0.92031  0.90036  Biso   1.000  C
  C50      1.0000 0.77497  0.43406  0.51775  Biso   1.000  C
  C51      1.0000 0.26121  0.05145  0.90036  Biso   1.000  C
  C52      1.0000 0.77497  0.43406  0.38661  Biso   1.000  C
  C53      1.0000 0.26121  0.43406  0.51775  Biso   1.000  C
  C54      1.0000 0.77497  0.05145  0.90036  Biso   1.000  C
  C55      1.0000 0.39236  0.43406  0.38661  Biso   1.000  C
  C56      1.0000 0.77497  0.92031  0.90036  Biso   1.000  C
  C57      1.0000 0.77497  0.05145  0.38661  Biso   1.000  C
  C58      1.0000 0.39236  0.43406  0.90036  Biso   1.000  C
  C59      1.0000 0.77497  0.92031  0.51775  Biso   1.000  C
  C60      1.0000 0.26121  0.43406  0.90036  Biso   1.000  C
  C61      1.0000 0.21471  0.48411  0.95041  Biso   1.000  C
  C62      1.0000 0.83210  0.99786  0.33302  Biso   1.000  C
  C63      1.0000 0.34585  0.48411  0.95041  Biso   1.000  C
  C64      1.0000 0.83210  0.86672  0.46416  Biso   1.000  C
  C65      1.0000 0.34585  0.48411  0.33302  Biso   1.000  C
  C66      1.0000 0.83210  0.99786  0.95041  Biso   1.000  C
  C67      1.0000 0.21471  0.48411  0.46416  Biso   1.000  C
  C68      1.0000 0.83210  0.86672  0.95041  Biso   1.000  C
  C69      1.0000 0.83210  0.48411  0.46416  Biso   1.000  C
  C70      1.0000 0.21471  0.99786  0.95041  Biso   1.000  C
  C71      1.0000 0.83210  0.48411  0.33302  Biso   1.000  C
  C72      1.0000 0.34585  0.86672  0.95041  Biso   1.000  C
  C73      1.0000 0.41187  0.07096  0.81528  Biso   1.000  C
  C74      1.0000 0.35390  0.01300  0.87325  Biso   1.000  C
  C75      1.0000 0.68989  0.34898  0.53726  Biso   1.000  C
  C76      1.0000 0.74785  0.40695  0.47930  Biso   1.000  C
  C77      1.0000 0.41187  0.34898  0.53726  Biso   1.000  C
  C78      1.0000 0.35390  0.40695  0.47930  Biso   1.000  C
  C79      1.0000 0.68989  0.07096  0.81528  Biso   1.000  C
  C80      1.0000 0.74785  0.01300  0.87325  Biso   1.000  C
  C81      1.0000 0.68989  0.07096  0.53726  Biso   1.000  C
  C82      1.0000 0.74785  0.01300  0.47930  Biso   1.000  C
  C83      1.0000 0.41187  0.34898  0.81528  Biso   1.000  C
  C84      1.0000 0.35390  0.40695  0.87325  Biso   1.000  C
  C85      1.0000 0.19520  0.56919  0.03549  Biso   1.000  C
  C86      1.0000 0.25317  0.51122  0.97753  Biso   1.000  C
  C87      1.0000 0.91718  0.84721  0.31351  Biso   1.000  C
  C88      1.0000 0.85922  0.90518  0.37148  Biso   1.000  C
  C89      1.0000 0.19520  0.56919  0.31351  Biso   1.000  C
  C90      1.0000 0.25317  0.51122  0.37148  Biso   1.000  C
  C91      1.0000 0.91718  0.84721  0.03549  Biso   1.000  C
  C92      1.0000 0.85922  0.90518  0.97753  Biso   1.000  C
  C93      1.0000 0.91718  0.56919  0.31351  Biso   1.000  C
  C94      1.0000 0.85922  0.51122  0.37148  Biso   1.000  C
  C95      1.0000 0.19520  0.84721  0.03549  Biso   1.000  C
  C96      1.0000 0.25317  0.90518  0.97753  Biso   1.000  C
  O27      1.0000 0.55088  0.20997  0.67627  Biso   1.000  O
  O28      1.0000 0.05619  0.70820  0.17450  Biso   1.000  O
  O29      1.0000 0.49565  0.03183  0.79296  Biso   1.000  O
  O30      1.0000 0.66756  0.32665  0.62105  Biso   1.000  O
  O31      1.0000 0.37274  0.15475  0.79296  Biso   1.000  O
  O32      1.0000 0.66756  0.32665  0.49813  Biso   1.000  O
  O33      1.0000 0.37274  0.32665  0.62105  Biso   1.000  O
  O34      1.0000 0.66756  0.15475  0.79296  Biso   1.000  O
  O35      1.0000 0.49565  0.32665  0.49813  Biso   1.000  O
  O36      1.0000 0.66756  0.03183  0.79296  Biso   1.000  O
  O37      1.0000 0.66756  0.15475  0.49813  Biso   1.000  O
  O38      1.0000 0.49565  0.32665  0.79296  Biso   1.000  O
  O39      1.0000 0.66756  0.03183  0.62105  Biso   1.000  O
  O40      1.0000 0.37274  0.32665  0.79296  Biso   1.000  O
  O41      1.0000 0.11142  0.59152  0.05782  Biso   1.000  O
  O42      1.0000 0.93951  0.88634  0.22973  Biso   1.000  O
  O43      1.0000 0.23433  0.59152  0.05782  Biso   1.000  O
  O44      1.0000 0.93951  0.76342  0.35264  Biso   1.000  O
  O45      1.0000 0.23433  0.59152  0.22973  Biso   1.000  O
  O46      1.0000 0.93951  0.88634  0.05782  Biso   1.000  O
  O47      1.0000 0.11142  0.59152  0.35264  Biso   1.000  O
  O48      1.0000 0.93951  0.76342  0.05782  Biso   1.000  O
  O49      1.0000 0.93951  0.59152  0.35264  Biso   1.000  O
  O50      1.0000 0.11142  0.88634  0.05782  Biso   1.000  O
  O51      1.0000 0.93951  0.59152  0.22973  Biso   1.000  O
  O52      1.0000 0.23433  0.76342  0.05782  Biso   1.000  O
