data_image0
_cell_length_a       18.2789
_cell_length_b       18.2789
_cell_length_c       18.2789
_cell_angle_alpha    60
_cell_angle_beta     60
_cell_angle_gamma    60

_symmetry_space_group_name_H-M    "P 1"
_symmetry_int_tables_number       1

loop_
  _symmetry_equiv_pos_as_xyz
  'x, y, z'

loop_
  _atom_site_label
  _atom_site_occupancy
  _atom_site_fract_x
  _atom_site_fract_y
  _atom_site_fract_z
  _atom_site_thermal_displace_type
  _atom_site_B_iso_or_equiv
  _atom_site_type_symbol
  Zn1      1.0000 0.29348  0.29347  0.11958  Biso   1.000  Zn
  Zn2      1.0000 0.29348  0.29347  0.29347  Biso   1.000  Zn
  Zn3      1.0000 0.11959  0.29347  0.29347  Biso   1.000  Zn
  Zn4      1.0000 0.29348  0.11958  0.29347  Biso   1.000  Zn
  Zn5      1.0000 0.70652  0.70653  0.88042  Biso   1.000  Zn
  Zn6      1.0000 0.70652  0.70653  0.70653  Biso   1.000  Zn
  Zn7      1.0000 0.70652  0.88042  0.70653  Biso   1.000  Zn
  Zn8      1.0000 0.88041  0.70653  0.70653  Biso   1.000  Zn
  H1       1.0000 0.45520  0.45520  0.93520  Biso   1.000  H
  H2       1.0000 0.45520  0.45520  0.15440  Biso   1.000  H
  H3       1.0000 0.93520  0.15440  0.45520  Biso   1.000  H
  H4       1.0000 0.15440  0.93520  0.45520  Biso   1.000  H
  H5       1.0000 0.45520  0.93520  0.15440  Biso   1.000  H
  H6       1.0000 0.45520  0.15440  0.93520  Biso   1.000  H
  H7       1.0000 0.93520  0.45520  0.45520  Biso   1.000  H
  H8       1.0000 0.15440  0.45520  0.45520  Biso   1.000  H
  H9       1.0000 0.45520  0.15440  0.45520  Biso   1.000  H
  H10      1.0000 0.45520  0.93520  0.45520  Biso   1.000  H
  H11      1.0000 0.93520  0.45520  0.15440  Biso   1.000  H
  H12      1.0000 0.15440  0.45520  0.93520  Biso   1.000  H
  H13      1.0000 0.54480  0.54480  0.06480  Biso   1.000  H
  H14      1.0000 0.54480  0.54480  0.84560  Biso   1.000  H
  H15      1.0000 0.84560  0.06480  0.54480  Biso   1.000  H
  H16      1.0000 0.06480  0.84560  0.54480  Biso   1.000  H
  H17      1.0000 0.06480  0.54480  0.84560  Biso   1.000  H
  H18      1.0000 0.84560  0.54480  0.06480  Biso   1.000  H
  H19      1.0000 0.54480  0.06480  0.54480  Biso   1.000  H
  H20      1.0000 0.54480  0.84560  0.54480  Biso   1.000  H
  H21      1.0000 0.84560  0.54480  0.54480  Biso   1.000  H
  H22      1.0000 0.06480  0.54480  0.54480  Biso   1.000  H
  H23      1.0000 0.54480  0.06480  0.84560  Biso   1.000  H
  H24      1.0000 0.54480  0.84560  0.06480  Biso   1.000  H
  C1       1.0000 0.47338  0.47338  0.96214  Biso   1.000  C
  C2       1.0000 0.47338  0.47338  0.09110  Biso   1.000  C
  C3       1.0000 0.96214  0.09110  0.47338  Biso   1.000  C
  C4       1.0000 0.09110  0.96214  0.47338  Biso   1.000  C
  C5       1.0000 0.47338  0.96214  0.09110  Biso   1.000  C
  C6       1.0000 0.47338  0.09110  0.96214  Biso   1.000  C
  C7       1.0000 0.96214  0.47338  0.47338  Biso   1.000  C
  C8       1.0000 0.09110  0.47338  0.47338  Biso   1.000  C
  C9       1.0000 0.47338  0.09110  0.47338  Biso   1.000  C
  C10      1.0000 0.47338  0.96214  0.47338  Biso   1.000  C
  C11      1.0000 0.96214  0.47338  0.09110  Biso   1.000  C
  C12      1.0000 0.09110  0.47338  0.96214  Biso   1.000  C
  C13      1.0000 0.52662  0.52662  0.03786  Biso   1.000  C
  C14      1.0000 0.52662  0.52662  0.90890  Biso   1.000  C
  C15      1.0000 0.90890  0.03786  0.52662  Biso   1.000  C
  C16      1.0000 0.03786  0.90890  0.52662  Biso   1.000  C
  C17      1.0000 0.03786  0.52662  0.90890  Biso   1.000  C
  C18      1.0000 0.90890  0.52662  0.03786  Biso   1.000  C
  C19      1.0000 0.52662  0.03786  0.52662  Biso   1.000  C
  C20      1.0000 0.52662  0.90890  0.52662  Biso   1.000  C
  C21      1.0000 0.90890  0.52662  0.52662  Biso   1.000  C
  C22      1.0000 0.03786  0.52662  0.52662  Biso   1.000  C
  C23      1.0000 0.52662  0.03786  0.90890  Biso   1.000  C
  C24      1.0000 0.52662  0.90890  0.03786  Biso   1.000  C
  C25      1.0000 0.38853  0.38853  0.11147  Biso   1.000  C
  C26      1.0000 0.44615  0.44615  0.05385  Biso   1.000  C
  C27      1.0000 0.11147  0.11147  0.38853  Biso   1.000  C
  C28      1.0000 0.05385  0.05385  0.44615  Biso   1.000  C
  C29      1.0000 0.38853  0.11147  0.11147  Biso   1.000  C
  C30      1.0000 0.44615  0.05385  0.05385  Biso   1.000  C
  C31      1.0000 0.11147  0.38853  0.38853  Biso   1.000  C
  C32      1.0000 0.05385  0.44615  0.44615  Biso   1.000  C
  C33      1.0000 0.38853  0.11147  0.38853  Biso   1.000  C
  C34      1.0000 0.44615  0.05385  0.44615  Biso   1.000  C
  C35      1.0000 0.11147  0.38853  0.11147  Biso   1.000  C
  C36      1.0000 0.05385  0.44615  0.05385  Biso   1.000  C
  C37      1.0000 0.61147  0.61147  0.88853  Biso   1.000  C
  C38      1.0000 0.55385  0.55385  0.94615  Biso   1.000  C
  C39      1.0000 0.88853  0.88853  0.61147  Biso   1.000  C
  C40      1.0000 0.94615  0.94615  0.55385  Biso   1.000  C
  C41      1.0000 0.88853  0.61147  0.88853  Biso   1.000  C
  C42      1.0000 0.94615  0.55385  0.94615  Biso   1.000  C
  C43      1.0000 0.61147  0.88853  0.61147  Biso   1.000  C
  C44      1.0000 0.55385  0.94615  0.55385  Biso   1.000  C
  C45      1.0000 0.88853  0.61147  0.61147  Biso   1.000  C
  C46      1.0000 0.94615  0.55385  0.55385  Biso   1.000  C
  C47      1.0000 0.61147  0.88853  0.88853  Biso   1.000  C
  C48      1.0000 0.55385  0.94615  0.94615  Biso   1.000  C
  O1       1.0000 0.25000  0.25000  0.25000  Biso   1.000  O
  O2       1.0000 0.75000  0.75000  0.75000  Biso   1.000  O
  O3       1.0000 0.36624  0.36624  0.07286  Biso   1.000  O
  O4       1.0000 0.36624  0.36624  0.19466  Biso   1.000  O
  O5       1.0000 0.07286  0.19466  0.36624  Biso   1.000  O
  O6       1.0000 0.19466  0.07286  0.36624  Biso   1.000  O
  O7       1.0000 0.36624  0.07286  0.19466  Biso   1.000  O
  O8       1.0000 0.36624  0.19466  0.07286  Biso   1.000  O
  O9       1.0000 0.07286  0.36624  0.36624  Biso   1.000  O
  O10      1.0000 0.19466  0.36624  0.36624  Biso   1.000  O
  O11      1.0000 0.36624  0.19466  0.36624  Biso   1.000  O
  O12      1.0000 0.36624  0.07286  0.36624  Biso   1.000  O
  O13      1.0000 0.07286  0.36624  0.19466  Biso   1.000  O
  O14      1.0000 0.19466  0.36624  0.07286  Biso   1.000  O
  O15      1.0000 0.63376  0.63376  0.92714  Biso   1.000  O
  O16      1.0000 0.63376  0.63376  0.80534  Biso   1.000  O
  O17      1.0000 0.80534  0.92714  0.63376  Biso   1.000  O
  O18      1.0000 0.92714  0.80534  0.63376  Biso   1.000  O
  O19      1.0000 0.92714  0.63376  0.80534  Biso   1.000  O
  O20      1.0000 0.80534  0.63376  0.92714  Biso   1.000  O
  O21      1.0000 0.63376  0.92714  0.63376  Biso   1.000  O
  O22      1.0000 0.63376  0.80534  0.63376  Biso   1.000  O
  O23      1.0000 0.80534  0.63376  0.63376  Biso   1.000  O
  O24      1.0000 0.92714  0.63376  0.63376  Biso   1.000  O
  O25      1.0000 0.63376  0.92714  0.80534  Biso   1.000  O
  O26      1.0000 0.63376  0.80534  0.92714  Biso   1.000  O
  Zn9      1.0000 0.07375  0.59147  0.58869  Biso   1.000  Zn
  Zn10     1.0000 0.48770  0.17740  0.00283  Biso   1.000  Zn
  Zn11     1.0000 0.48770  0.00305  0.00283  Biso   1.000  Zn
  Zn12     1.0000 0.07375  0.41711  0.58869  Biso   1.000  Zn
  Zn13     1.0000 0.07329  0.59181  0.41409  Biso   1.000  Zn
  Zn14     1.0000 0.89900  0.59162  0.58879  Biso   1.000  Zn
  Zn15     1.0000 0.48816  0.00271  0.17743  Biso   1.000  Zn
  Zn16     1.0000 0.66245  0.00290  0.00273  Biso   1.000  Zn
  H25      1.0000 0.23937  0.23504  0.44553  Biso   1.000  H
  H26      1.0000 0.23006  0.45220  0.23443  Biso   1.000  H
  H27      1.0000 0.93641  0.23612  0.74837  Biso   1.000  H
  H28      1.0000 0.71654  0.44968  0.75067  Biso   1.000  H
  H29      1.0000 0.24018  0.45167  0.74588  Biso   1.000  H
  H30      1.0000 0.32208  0.84343  0.14599  Biso   1.000  H
  H31      1.0000 0.33139  0.84023  0.35709  Biso   1.000  H
  H32      1.0000 0.62505  0.84434  0.84315  Biso   1.000  H
  H33      1.0000 0.84491  0.84035  0.84085  Biso   1.000  H
  H34      1.0000 0.32126  0.36119  0.84564  Biso   1.000  H
  H35      1.0000 0.32208  0.35948  0.14599  Biso   1.000  H
  H36      1.0000 0.33139  0.14232  0.35709  Biso   1.000  H
  H37      1.0000 0.62504  0.35840  0.84315  Biso   1.000  H
  H38      1.0000 0.84491  0.14484  0.84085  Biso   1.000  H
  H39      1.0000 0.32127  0.14284  0.84564  Biso   1.000  H
  H40      1.0000 0.23937  0.75109  0.44553  Biso   1.000  H
  H41      1.0000 0.23006  0.75429  0.23443  Biso   1.000  H
  H42      1.0000 0.93640  0.75018  0.74837  Biso   1.000  H
  H43      1.0000 0.71654  0.75416  0.75067  Biso   1.000  H
  H44      1.0000 0.24019  0.23333  0.74588  Biso   1.000  H
  H45      1.0000 0.71742  0.75298  0.44763  Biso   1.000  H
  H46      1.0000 0.93067  0.75409  0.23214  Biso   1.000  H
  H47      1.0000 0.84403  0.84153  0.14389  Biso   1.000  H
  H48      1.0000 0.63078  0.84043  0.35938  Biso   1.000  H
  C49      1.0000 0.16776  0.40862  0.40924  Biso   1.000  C
  C50      1.0000 0.22717  0.35070  0.34821  Biso   1.000  C
  C51      1.0000 0.25712  0.26066  0.38351  Biso   1.000  C
  C52      1.0000 0.24940  0.39028  0.26036  Biso   1.000  C
  C53      1.0000 0.88951  0.41180  0.68555  Biso   1.000  C
  C54      1.0000 0.83558  0.35347  0.74070  Biso   1.000  C
  C55      1.0000 0.87439  0.26224  0.76632  Biso   1.000  C
  C56      1.0000 0.74416  0.38786  0.76812  Biso   1.000  C
  C57      1.0000 0.25603  0.38976  0.76592  Biso   1.000  C
  C58      1.0000 0.39369  0.90913  0.18228  Biso   1.000  C
  C59      1.0000 0.33427  0.84960  0.24331  Biso   1.000  C
  C60      1.0000 0.30433  0.82478  0.20801  Biso   1.000  C
  C61      1.0000 0.31205  0.82358  0.33116  Biso   1.000  C
  C62      1.0000 0.67193  0.91034  0.90597  Biso   1.000  C
  C63      1.0000 0.72587  0.85321  0.85082  Biso   1.000  C
  C64      1.0000 0.68706  0.82640  0.82520  Biso   1.000  C
  C65      1.0000 0.81729  0.82360  0.82340  Biso   1.000  C
  C66      1.0000 0.30541  0.33517  0.82560  Biso   1.000  C
  C67      1.0000 0.39369  0.18590  0.18228  Biso   1.000  C
  C68      1.0000 0.33428  0.24382  0.24331  Biso   1.000  C
  C69      1.0000 0.30433  0.33385  0.20801  Biso   1.000  C
  C70      1.0000 0.31205  0.20423  0.33116  Biso   1.000  C
  C71      1.0000 0.67194  0.18272  0.90597  Biso   1.000  C
  C72      1.0000 0.72587  0.24105  0.85082  Biso   1.000  C
  C73      1.0000 0.68705  0.33228  0.82520  Biso   1.000  C
  C74      1.0000 0.81729  0.20665  0.82340  Biso   1.000  C
  C75      1.0000 0.30541  0.20476  0.82560  Biso   1.000  C
  C76      1.0000 0.16776  0.68539  0.40924  Biso   1.000  C
  C77      1.0000 0.22717  0.74491  0.34821  Biso   1.000  C
  C78      1.0000 0.25711  0.76974  0.38351  Biso   1.000  C
  C79      1.0000 0.24940  0.77094  0.26036  Biso   1.000  C
  C80      1.0000 0.88951  0.68418  0.68555  Biso   1.000  C
  C81      1.0000 0.83558  0.74130  0.74070  Biso   1.000  C
  C82      1.0000 0.87439  0.76812  0.76632  Biso   1.000  C
  C83      1.0000 0.74416  0.77091  0.76812  Biso   1.000  C
  C84      1.0000 0.25604  0.25935  0.76592  Biso   1.000  C
  C85      1.0000 0.89618  0.68619  0.40246  Biso   1.000  C
  C86      1.0000 0.83416  0.74322  0.35040  Biso   1.000  C
  C87      1.0000 0.74454  0.77033  0.38580  Biso   1.000  C
  C88      1.0000 0.86876  0.77154  0.25916  Biso   1.000  C
  C89      1.0000 0.16627  0.41359  0.67758  Biso   1.000  C
  C90      1.0000 0.22610  0.35207  0.74080  Biso   1.000  C
  C91      1.0000 0.66527  0.90833  0.18906  Biso   1.000  C
  C92      1.0000 0.72728  0.85130  0.24112  Biso   1.000  C
  C93      1.0000 0.81691  0.82418  0.20572  Biso   1.000  C
  C94      1.0000 0.69269  0.82298  0.33236  Biso   1.000  C
  C95      1.0000 0.39517  0.18093  0.91394  Biso   1.000  C
  C96      1.0000 0.33535  0.24244  0.85072  Biso   1.000  C
  O27      1.0000 0.14771  0.49377  0.36347  Biso   1.000  O
  O28      1.0000 0.14902  0.36485  0.49320  Biso   1.000  O
  O29      1.0000 0.84973  0.49475  0.65913  Biso   1.000  O
  O30      1.0000 0.97555  0.36783  0.66312  Biso   1.000  O
  O31      1.0000 0.14723  0.49574  0.66032  Biso   1.000  O
  O32      1.0000 0.41373  0.92847  0.22805  Biso   1.000  O
  O33      1.0000 0.41243  0.93057  0.09832  Biso   1.000  O
  O34      1.0000 0.71172  0.92709  0.93239  Biso   1.000  O
  O35      1.0000 0.58590  0.92998  0.92840  Biso   1.000  O
  O36      1.0000 0.41422  0.22679  0.93120  Biso   1.000  O
  O37      1.0000 0.41373  0.10075  0.22805  Biso   1.000  O
  O38      1.0000 0.41243  0.22967  0.09832  Biso   1.000  O
  O39      1.0000 0.71172  0.09977  0.93239  Biso   1.000  O
  O40      1.0000 0.58590  0.22669  0.92840  Biso   1.000  O
  O41      1.0000 0.41422  0.09877  0.93120  Biso   1.000  O
  O42      1.0000 0.14772  0.66605  0.36347  Biso   1.000  O
  O43      1.0000 0.14902  0.66395  0.49320  Biso   1.000  O
  O44      1.0000 0.84973  0.66743  0.65913  Biso   1.000  O
  O45      1.0000 0.97555  0.66454  0.66312  Biso   1.000  O
  O46      1.0000 0.14723  0.36773  0.66032  Biso   1.000  O
  O47      1.0000 0.03068  0.54779  0.54475  Biso   1.000  O
  O48      1.0000 0.97673  0.66505  0.36417  Biso   1.000  O
  O49      1.0000 0.85112  0.66734  0.48522  Biso   1.000  O
  O50      1.0000 0.53077  0.04672  0.04677  Biso   1.000  O
  O51      1.0000 0.58472  0.92947  0.22735  Biso   1.000  O
  O52      1.0000 0.71033  0.92718  0.10630  Biso   1.000  O
