data_image0
_cell_length_a       18.2965
_cell_length_b       18.2965
_cell_length_c       18.2965
_cell_angle_alpha    60
_cell_angle_beta     60
_cell_angle_gamma    60

_symmetry_space_group_name_H-M    "P 1"
_symmetry_int_tables_number       1

loop_
  _symmetry_equiv_pos_as_xyz
  'x, y, z'

loop_
  _atom_site_label
  _atom_site_occupancy
  _atom_site_fract_x
  _atom_site_fract_y
  _atom_site_fract_z
  _atom_site_thermal_displace_type
  _atom_site_B_iso_or_equiv
  _atom_site_type_symbol
  Zn1      1.0000 0.29344  0.29343  0.11970  Biso   1.000  Zn
  Zn2      1.0000 0.29344  0.29343  0.29343  Biso   1.000  Zn
  Zn3      1.0000 0.11971  0.29343  0.29343  Biso   1.000  Zn
  Zn4      1.0000 0.29344  0.11970  0.29343  Biso   1.000  Zn
  Zn5      1.0000 0.70656  0.70657  0.88030  Biso   1.000  Zn
  Zn6      1.0000 0.70656  0.70657  0.70657  Biso   1.000  Zn
  Zn7      1.0000 0.70656  0.88030  0.70657  Biso   1.000  Zn
  Zn8      1.0000 0.88029  0.70657  0.70657  Biso   1.000  Zn
  H1       1.0000 0.45520  0.45520  0.93480  Biso   1.000  H
  H2       1.0000 0.45520  0.45520  0.15480  Biso   1.000  H
  H3       1.0000 0.93480  0.15480  0.45520  Biso   1.000  H
  H4       1.0000 0.15480  0.93480  0.45520  Biso   1.000  H
  H5       1.0000 0.45520  0.93480  0.15480  Biso   1.000  H
  H6       1.0000 0.45520  0.15480  0.93480  Biso   1.000  H
  H7       1.0000 0.93480  0.45520  0.45520  Biso   1.000  H
  H8       1.0000 0.15480  0.45520  0.45520  Biso   1.000  H
  H9       1.0000 0.45520  0.15480  0.45520  Biso   1.000  H
  H10      1.0000 0.45520  0.93480  0.45520  Biso   1.000  H
  H11      1.0000 0.93480  0.45520  0.15480  Biso   1.000  H
  H12      1.0000 0.15480  0.45520  0.93480  Biso   1.000  H
  H13      1.0000 0.54480  0.54480  0.06520  Biso   1.000  H
  H14      1.0000 0.54480  0.54480  0.84520  Biso   1.000  H
  H15      1.0000 0.84520  0.06520  0.54480  Biso   1.000  H
  H16      1.0000 0.06520  0.84520  0.54480  Biso   1.000  H
  H17      1.0000 0.06520  0.54480  0.84520  Biso   1.000  H
  H18      1.0000 0.84520  0.54480  0.06520  Biso   1.000  H
  H19      1.0000 0.54480  0.06520  0.54480  Biso   1.000  H
  H20      1.0000 0.54480  0.84520  0.54480  Biso   1.000  H
  H21      1.0000 0.84520  0.54480  0.54480  Biso   1.000  H
  H22      1.0000 0.06520  0.54480  0.54480  Biso   1.000  H
  H23      1.0000 0.54480  0.06520  0.84520  Biso   1.000  H
  H24      1.0000 0.54480  0.84520  0.06520  Biso   1.000  H
  C1       1.0000 0.47339  0.47339  0.96175  Biso   1.000  C
  C2       1.0000 0.47339  0.47339  0.09147  Biso   1.000  C
  C3       1.0000 0.96175  0.09147  0.47339  Biso   1.000  C
  C4       1.0000 0.09147  0.96175  0.47339  Biso   1.000  C
  C5       1.0000 0.47339  0.96175  0.09147  Biso   1.000  C
  C6       1.0000 0.47339  0.09147  0.96175  Biso   1.000  C
  C7       1.0000 0.96175  0.47339  0.47339  Biso   1.000  C
  C8       1.0000 0.09147  0.47339  0.47339  Biso   1.000  C
  C9       1.0000 0.47339  0.09147  0.47339  Biso   1.000  C
  C10      1.0000 0.47339  0.96175  0.47339  Biso   1.000  C
  C11      1.0000 0.96175  0.47339  0.09147  Biso   1.000  C
  C12      1.0000 0.09147  0.47339  0.96175  Biso   1.000  C
  C13      1.0000 0.52661  0.52661  0.03825  Biso   1.000  C
  C14      1.0000 0.52661  0.52661  0.90853  Biso   1.000  C
  C15      1.0000 0.90853  0.03825  0.52661  Biso   1.000  C
  C16      1.0000 0.03825  0.90853  0.52661  Biso   1.000  C
  C17      1.0000 0.03825  0.52661  0.90853  Biso   1.000  C
  C18      1.0000 0.90853  0.52661  0.03825  Biso   1.000  C
  C19      1.0000 0.52661  0.03825  0.52661  Biso   1.000  C
  C20      1.0000 0.52661  0.90853  0.52661  Biso   1.000  C
  C21      1.0000 0.90853  0.52661  0.52661  Biso   1.000  C
  C22      1.0000 0.03825  0.52661  0.52661  Biso   1.000  C
  C23      1.0000 0.52661  0.03825  0.90853  Biso   1.000  C
  C24      1.0000 0.52661  0.90853  0.03825  Biso   1.000  C
  C25      1.0000 0.38840  0.38840  0.11160  Biso   1.000  C
  C26      1.0000 0.44637  0.44637  0.05363  Biso   1.000  C
  C27      1.0000 0.11160  0.11160  0.38840  Biso   1.000  C
  C28      1.0000 0.05363  0.05363  0.44637  Biso   1.000  C
  C29      1.0000 0.38840  0.11160  0.11160  Biso   1.000  C
  C30      1.0000 0.44637  0.05363  0.05363  Biso   1.000  C
  C31      1.0000 0.11160  0.38840  0.38840  Biso   1.000  C
  C32      1.0000 0.05363  0.44637  0.44637  Biso   1.000  C
  C33      1.0000 0.38840  0.11160  0.38840  Biso   1.000  C
  C34      1.0000 0.44637  0.05363  0.44637  Biso   1.000  C
  C35      1.0000 0.11160  0.38840  0.11160  Biso   1.000  C
  C36      1.0000 0.05363  0.44637  0.05363  Biso   1.000  C
  C37      1.0000 0.61160  0.61160  0.88840  Biso   1.000  C
  C38      1.0000 0.55363  0.55363  0.94637  Biso   1.000  C
  C39      1.0000 0.88840  0.88840  0.61160  Biso   1.000  C
  C40      1.0000 0.94637  0.94637  0.55363  Biso   1.000  C
  C41      1.0000 0.88840  0.61160  0.88840  Biso   1.000  C
  C42      1.0000 0.94637  0.55363  0.94637  Biso   1.000  C
  C43      1.0000 0.61160  0.88840  0.61160  Biso   1.000  C
  C44      1.0000 0.55363  0.94637  0.55363  Biso   1.000  C
  C45      1.0000 0.88840  0.61160  0.61160  Biso   1.000  C
  C46      1.0000 0.94637  0.55363  0.55363  Biso   1.000  C
  C47      1.0000 0.61160  0.88840  0.88840  Biso   1.000  C
  C48      1.0000 0.55363  0.94637  0.94637  Biso   1.000  C
  O1       1.0000 0.25000  0.25000  0.25000  Biso   1.000  O
  O2       1.0000 0.75000  0.75000  0.75000  Biso   1.000  O
  O3       1.0000 0.36613  0.36613  0.07281  Biso   1.000  O
  O4       1.0000 0.36613  0.36613  0.19493  Biso   1.000  O
  O5       1.0000 0.07281  0.19493  0.36613  Biso   1.000  O
  O6       1.0000 0.19493  0.07281  0.36613  Biso   1.000  O
  O7       1.0000 0.36613  0.07281  0.19493  Biso   1.000  O
  O8       1.0000 0.36613  0.19493  0.07281  Biso   1.000  O
  O9       1.0000 0.07281  0.36613  0.36613  Biso   1.000  O
  O10      1.0000 0.19493  0.36613  0.36613  Biso   1.000  O
  O11      1.0000 0.36613  0.19493  0.36613  Biso   1.000  O
  O12      1.0000 0.36613  0.07281  0.36613  Biso   1.000  O
  O13      1.0000 0.07281  0.36613  0.19493  Biso   1.000  O
  O14      1.0000 0.19493  0.36613  0.07281  Biso   1.000  O
  O15      1.0000 0.63387  0.63387  0.92719  Biso   1.000  O
  O16      1.0000 0.63387  0.63387  0.80507  Biso   1.000  O
  O17      1.0000 0.80507  0.92719  0.63387  Biso   1.000  O
  O18      1.0000 0.92719  0.80507  0.63387  Biso   1.000  O
  O19      1.0000 0.92719  0.63387  0.80507  Biso   1.000  O
  O20      1.0000 0.80507  0.63387  0.92719  Biso   1.000  O
  O21      1.0000 0.63387  0.92719  0.63387  Biso   1.000  O
  O22      1.0000 0.63387  0.80507  0.63387  Biso   1.000  O
  O23      1.0000 0.80507  0.63387  0.63387  Biso   1.000  O
  O24      1.0000 0.92719  0.63387  0.63387  Biso   1.000  O
  O25      1.0000 0.63387  0.92719  0.80507  Biso   1.000  O
  O26      1.0000 0.63387  0.80507  0.92719  Biso   1.000  O
  Zn9      1.0000 0.59467  0.07278  0.72214  Biso   1.000  Zn
  Zn10     1.0000 0.59467  0.25016  0.72214  Biso   1.000  Zn
  Zn11     1.0000 0.41730  0.25016  0.72214  Biso   1.000  Zn
  Zn12     1.0000 0.59467  0.25016  0.54477  Biso   1.000  Zn
  Zn13     1.0000 0.00745  0.66098  0.13297  Biso   1.000  Zn
  Zn14     1.0000 0.00745  0.83836  0.13297  Biso   1.000  Zn
  Zn15     1.0000 0.18482  0.66098  0.13297  Biso   1.000  Zn
  Zn16     1.0000 0.00745  0.66098  0.31034  Biso   1.000  Zn
  H25      1.0000 0.44823  0.89351  0.88500  Biso   1.000  H
  H26      1.0000 0.75753  0.41301  0.57570  Biso   1.000  H
  H27      1.0000 0.23803  0.10371  0.88500  Biso   1.000  H
  H28      1.0000 0.75753  0.41301  0.36550  Biso   1.000  H
  H29      1.0000 0.23803  0.41301  0.57570  Biso   1.000  H
  H30      1.0000 0.75753  0.10371  0.88500  Biso   1.000  H
  H31      1.0000 0.44823  0.41301  0.36550  Biso   1.000  H
  H32      1.0000 0.75753  0.89351  0.88500  Biso   1.000  H
  H33      1.0000 0.75753  0.10371  0.36550  Biso   1.000  H
  H34      1.0000 0.44823  0.41301  0.88500  Biso   1.000  H
  H35      1.0000 0.75753  0.89351  0.57570  Biso   1.000  H
  H36      1.0000 0.23803  0.41301  0.88500  Biso   1.000  H
  H37      1.0000 0.15389  0.49812  0.97011  Biso   1.000  H
  H38      1.0000 0.84459  0.01763  0.27941  Biso   1.000  H
  H39      1.0000 0.36409  0.49812  0.97011  Biso   1.000  H
  H40      1.0000 0.84459  0.80743  0.48962  Biso   1.000  H
  H41      1.0000 0.36409  0.49812  0.27941  Biso   1.000  H
  H42      1.0000 0.84459  0.01763  0.97011  Biso   1.000  H
  H43      1.0000 0.15389  0.49812  0.48962  Biso   1.000  H
  H44      1.0000 0.84459  0.80743  0.97011  Biso   1.000  H
  H45      1.0000 0.84459  0.49812  0.48962  Biso   1.000  H
  H46      1.0000 0.15389  0.01763  0.97011  Biso   1.000  H
  H47      1.0000 0.84459  0.49812  0.27941  Biso   1.000  H
  H48      1.0000 0.36409  0.80743  0.97011  Biso   1.000  H
  C49      1.0000 0.39578  0.91633  0.89981  Biso   1.000  C
  C50      1.0000 0.77235  0.42783  0.52325  Biso   1.000  C
  C51      1.0000 0.26085  0.05126  0.89981  Biso   1.000  C
  C52      1.0000 0.77235  0.42783  0.38832  Biso   1.000  C
  C53      1.0000 0.26085  0.42783  0.52325  Biso   1.000  C
  C54      1.0000 0.77235  0.05126  0.89981  Biso   1.000  C
  C55      1.0000 0.39578  0.42783  0.38832  Biso   1.000  C
  C56      1.0000 0.77235  0.91633  0.89981  Biso   1.000  C
  C57      1.0000 0.77235  0.05126  0.38832  Biso   1.000  C
  C58      1.0000 0.39578  0.42783  0.89981  Biso   1.000  C
  C59      1.0000 0.77235  0.91633  0.52325  Biso   1.000  C
  C60      1.0000 0.26085  0.42783  0.89981  Biso   1.000  C
  C61      1.0000 0.20634  0.48331  0.95530  Biso   1.000  C
  C62      1.0000 0.82977  0.99481  0.33186  Biso   1.000  C
  C63      1.0000 0.34127  0.48331  0.95530  Biso   1.000  C
  C64      1.0000 0.82977  0.85988  0.46679  Biso   1.000  C
  C65      1.0000 0.34127  0.48331  0.33186  Biso   1.000  C
  C66      1.0000 0.82977  0.99481  0.95530  Biso   1.000  C
  C67      1.0000 0.20634  0.48331  0.46679  Biso   1.000  C
  C68      1.0000 0.82977  0.85988  0.95530  Biso   1.000  C
  C69      1.0000 0.82977  0.48331  0.46679  Biso   1.000  C
  C70      1.0000 0.20634  0.99481  0.95530  Biso   1.000  C
  C71      1.0000 0.82977  0.48331  0.33186  Biso   1.000  C
  C72      1.0000 0.34127  0.85988  0.95530  Biso   1.000  C
  C73      1.0000 0.41480  0.07028  0.81333  Biso   1.000  C
  C74      1.0000 0.35424  0.00972  0.87389  Biso   1.000  C
  C75      1.0000 0.68586  0.34134  0.54227  Biso   1.000  C
  C76      1.0000 0.74642  0.40190  0.48171  Biso   1.000  C
  C77      1.0000 0.41480  0.34134  0.54227  Biso   1.000  C
  C78      1.0000 0.35424  0.40190  0.48171  Biso   1.000  C
  C79      1.0000 0.68586  0.07028  0.81333  Biso   1.000  C
  C80      1.0000 0.74642  0.00972  0.87389  Biso   1.000  C
  C81      1.0000 0.68586  0.07028  0.54227  Biso   1.000  C
  C82      1.0000 0.74642  0.00972  0.48171  Biso   1.000  C
  C83      1.0000 0.41480  0.34134  0.81333  Biso   1.000  C
  C84      1.0000 0.35424  0.40190  0.87389  Biso   1.000  C
  C85      1.0000 0.18732  0.56979  0.04178  Biso   1.000  C
  C86      1.0000 0.24788  0.50924  0.98122  Biso   1.000  C
  C87      1.0000 0.91626  0.84086  0.31284  Biso   1.000  C
  C88      1.0000 0.85570  0.90142  0.37340  Biso   1.000  C
  C89      1.0000 0.18732  0.56979  0.31284  Biso   1.000  C
  C90      1.0000 0.24788  0.50924  0.37340  Biso   1.000  C
  C91      1.0000 0.91626  0.84086  0.04178  Biso   1.000  C
  C92      1.0000 0.85570  0.90142  0.98122  Biso   1.000  C
  C93      1.0000 0.91626  0.56979  0.31284  Biso   1.000  C
  C94      1.0000 0.85570  0.50924  0.37340  Biso   1.000  C
  C95      1.0000 0.18732  0.84086  0.04178  Biso   1.000  C
  C96      1.0000 0.24788  0.90142  0.98122  Biso   1.000  C
  O27      1.0000 0.55033  0.20581  0.67780  Biso   1.000  O
  O28      1.0000 0.05179  0.70533  0.17731  Biso   1.000  O
  O29      1.0000 0.49668  0.02644  0.79431  Biso   1.000  O
  O30      1.0000 0.66684  0.32233  0.62415  Biso   1.000  O
  O31      1.0000 0.37096  0.15216  0.79431  Biso   1.000  O
  O32      1.0000 0.66684  0.32233  0.49842  Biso   1.000  O
  O33      1.0000 0.37096  0.32233  0.62415  Biso   1.000  O
  O34      1.0000 0.66684  0.15216  0.79431  Biso   1.000  O
  O35      1.0000 0.49668  0.32233  0.49842  Biso   1.000  O
  O36      1.0000 0.66684  0.02644  0.79431  Biso   1.000  O
  O37      1.0000 0.66684  0.15216  0.49842  Biso   1.000  O
  O38      1.0000 0.49668  0.32233  0.79431  Biso   1.000  O
  O39      1.0000 0.66684  0.02644  0.62415  Biso   1.000  O
  O40      1.0000 0.37096  0.32233  0.79431  Biso   1.000  O
  O41      1.0000 0.10544  0.58881  0.06080  Biso   1.000  O
  O42      1.0000 0.93528  0.88470  0.23096  Biso   1.000  O
  O43      1.0000 0.23116  0.58881  0.06080  Biso   1.000  O
  O44      1.0000 0.93528  0.75898  0.35669  Biso   1.000  O
  O45      1.0000 0.23116  0.58881  0.23096  Biso   1.000  O
  O46      1.0000 0.93528  0.88470  0.06080  Biso   1.000  O
  O47      1.0000 0.10544  0.58881  0.35669  Biso   1.000  O
  O48      1.0000 0.93528  0.75898  0.06080  Biso   1.000  O
  O49      1.0000 0.93528  0.58881  0.35669  Biso   1.000  O
  O50      1.0000 0.10544  0.88470  0.06080  Biso   1.000  O
  O51      1.0000 0.93528  0.58881  0.23096  Biso   1.000  O
  O52      1.0000 0.23116  0.75898  0.06080  Biso   1.000  O
