data_image0
_cell_length_a       18.2205
_cell_length_b       18.2205
_cell_length_c       18.2205
_cell_angle_alpha    60
_cell_angle_beta     60
_cell_angle_gamma    60

_symmetry_space_group_name_H-M    "P 1"
_symmetry_int_tables_number       1

loop_
  _symmetry_equiv_pos_as_xyz
  'x, y, z'

loop_
  _atom_site_label
  _atom_site_occupancy
  _atom_site_fract_x
  _atom_site_fract_y
  _atom_site_fract_z
  _atom_site_thermal_displace_type
  _atom_site_B_iso_or_equiv
  _atom_site_type_symbol
  C1       1.0000 0.29361  0.29361  0.11917  Biso   1.000  C
  C2       1.0000 0.29361  0.29361  0.29361  Biso   1.000  C
  C3       1.0000 0.11917  0.29361  0.29361  Biso   1.000  C
  C4       1.0000 0.29361  0.11917  0.29361  Biso   1.000  C
  C5       1.0000 0.70639  0.70639  0.88083  Biso   1.000  C
  C6       1.0000 0.70639  0.70639  0.70639  Biso   1.000  C
  C7       1.0000 0.70639  0.88083  0.70639  Biso   1.000  C
  C8       1.0000 0.88083  0.70639  0.70639  Biso   1.000  C
  C9       1.0000 0.45580  0.45580  0.93700  Biso   1.000  C
  C10      1.0000 0.45580  0.45580  0.15140  Biso   1.000  C
  C11      1.0000 0.93700  0.15140  0.45580  Biso   1.000  C
  C12      1.0000 0.15140  0.93700  0.45580  Biso   1.000  C
  C13      1.0000 0.45580  0.93700  0.15140  Biso   1.000  C
  C14      1.0000 0.45580  0.15140  0.93700  Biso   1.000  C
  C15      1.0000 0.93700  0.45580  0.45580  Biso   1.000  C
  C16      1.0000 0.15140  0.45580  0.45580  Biso   1.000  C
  C17      1.0000 0.45580  0.15140  0.45580  Biso   1.000  C
  C18      1.0000 0.45580  0.93700  0.45580  Biso   1.000  C
  C19      1.0000 0.93700  0.45580  0.15140  Biso   1.000  C
  C20      1.0000 0.15140  0.45580  0.93700  Biso   1.000  C
  C21      1.0000 0.54420  0.54420  0.06300  Biso   1.000  C
  C22      1.0000 0.54420  0.54420  0.84860  Biso   1.000  C
  C23      1.0000 0.84860  0.06300  0.54420  Biso   1.000  C
  C24      1.0000 0.06300  0.84860  0.54420  Biso   1.000  C
  C25      1.0000 0.06300  0.54420  0.84860  Biso   1.000  C
  C26      1.0000 0.84860  0.54420  0.06300  Biso   1.000  C
  C27      1.0000 0.54420  0.06300  0.54420  Biso   1.000  C
  C28      1.0000 0.54420  0.84860  0.54420  Biso   1.000  C
  C29      1.0000 0.84860  0.54420  0.54420  Biso   1.000  C
  C30      1.0000 0.06300  0.54420  0.54420  Biso   1.000  C
  C31      1.0000 0.54420  0.06300  0.84860  Biso   1.000  C
  C32      1.0000 0.54420  0.84860  0.06300  Biso   1.000  C
  C33      1.0000 0.47350  0.47350  0.96390  Biso   1.000  C
  C34      1.0000 0.47350  0.47350  0.08910  Biso   1.000  C
  C35      1.0000 0.96390  0.08910  0.47350  Biso   1.000  C
  C36      1.0000 0.08910  0.96390  0.47350  Biso   1.000  C
  C37      1.0000 0.47350  0.96390  0.08910  Biso   1.000  C
  C38      1.0000 0.47350  0.08910  0.96390  Biso   1.000  C
  C39      1.0000 0.96390  0.47350  0.47350  Biso   1.000  C
  C40      1.0000 0.08910  0.47350  0.47350  Biso   1.000  C
  C41      1.0000 0.47350  0.08910  0.47350  Biso   1.000  C
  C42      1.0000 0.47350  0.96390  0.47350  Biso   1.000  C
  C43      1.0000 0.96390  0.47350  0.08910  Biso   1.000  C
  C44      1.0000 0.08910  0.47350  0.96390  Biso   1.000  C
  C45      1.0000 0.52650  0.52650  0.03610  Biso   1.000  C
  C46      1.0000 0.52650  0.52650  0.91090  Biso   1.000  C
  C47      1.0000 0.91090  0.03610  0.52650  Biso   1.000  C
  C48      1.0000 0.03610  0.91090  0.52650  Biso   1.000  C
  C49      1.0000 0.03610  0.52650  0.91090  Biso   1.000  C
  C50      1.0000 0.91090  0.52650  0.03610  Biso   1.000  C
  C51      1.0000 0.52650  0.03610  0.52650  Biso   1.000  C
  C52      1.0000 0.52650  0.91090  0.52650  Biso   1.000  C
  C53      1.0000 0.91090  0.52650  0.52650  Biso   1.000  C
  C54      1.0000 0.03610  0.52650  0.52650  Biso   1.000  C
  C55      1.0000 0.52650  0.03610  0.91090  Biso   1.000  C
  C56      1.0000 0.52650  0.91090  0.03610  Biso   1.000  C
  C57      1.0000 0.38850  0.38850  0.11150  Biso   1.000  C
  C58      1.0000 0.44660  0.44660  0.05340  Biso   1.000  C
  C59      1.0000 0.11150  0.11150  0.38850  Biso   1.000  C
  C60      1.0000 0.05340  0.05340  0.44660  Biso   1.000  C
  C61      1.0000 0.38850  0.11150  0.11150  Biso   1.000  C
  C62      1.0000 0.44660  0.05340  0.05340  Biso   1.000  C
  C63      1.0000 0.11150  0.38850  0.38850  Biso   1.000  C
  C64      1.0000 0.05340  0.44660  0.44660  Biso   1.000  C
  C65      1.0000 0.38850  0.11150  0.38850  Biso   1.000  C
  C66      1.0000 0.44660  0.05340  0.44660  Biso   1.000  C
  C67      1.0000 0.11150  0.38850  0.11150  Biso   1.000  C
  C68      1.0000 0.05340  0.44660  0.05340  Biso   1.000  C
  C69      1.0000 0.61150  0.61150  0.88850  Biso   1.000  C
  C70      1.0000 0.55340  0.55340  0.94660  Biso   1.000  C
  C71      1.0000 0.88850  0.88850  0.61150  Biso   1.000  C
  C72      1.0000 0.94660  0.94660  0.55340  Biso   1.000  C
  C73      1.0000 0.88850  0.61150  0.88850  Biso   1.000  C
  C74      1.0000 0.94660  0.55340  0.94660  Biso   1.000  C
  C75      1.0000 0.61150  0.88850  0.61150  Biso   1.000  C
  C76      1.0000 0.55340  0.94660  0.55340  Biso   1.000  C
  C77      1.0000 0.88850  0.61150  0.61150  Biso   1.000  C
  C78      1.0000 0.94660  0.55340  0.55340  Biso   1.000  C
  C79      1.0000 0.61150  0.88850  0.88850  Biso   1.000  C
  C80      1.0000 0.55340  0.94660  0.94660  Biso   1.000  C
  C81      1.0000 0.25000  0.25000  0.25000  Biso   1.000  C
  C82      1.0000 0.75000  0.75000  0.75000  Biso   1.000  C
  C83      1.0000 0.36609  0.36609  0.07351  Biso   1.000  C
  C84      1.0000 0.36609  0.36609  0.19431  Biso   1.000  C
  C85      1.0000 0.07351  0.19431  0.36609  Biso   1.000  C
  C86      1.0000 0.19431  0.07351  0.36609  Biso   1.000  C
  C87      1.0000 0.36609  0.07351  0.19431  Biso   1.000  C
  C88      1.0000 0.36609  0.19431  0.07351  Biso   1.000  C
  C89      1.0000 0.07351  0.36609  0.36609  Biso   1.000  C
  C90      1.0000 0.19431  0.36609  0.36609  Biso   1.000  C
  C91      1.0000 0.36609  0.19431  0.36609  Biso   1.000  C
  C92      1.0000 0.36609  0.07351  0.36609  Biso   1.000  C
  C93      1.0000 0.07351  0.36609  0.19431  Biso   1.000  C
  C94      1.0000 0.19431  0.36609  0.07351  Biso   1.000  C
  C95      1.0000 0.63391  0.63391  0.92649  Biso   1.000  C
  C96      1.0000 0.63391  0.63391  0.80569  Biso   1.000  C
  C97      1.0000 0.80569  0.92649  0.63391  Biso   1.000  C
  C98      1.0000 0.92649  0.80569  0.63391  Biso   1.000  C
  C99      1.0000 0.92649  0.63391  0.80569  Biso   1.000  C
  C100     1.0000 0.80569  0.63391  0.92649  Biso   1.000  C
  C101     1.0000 0.63391  0.92649  0.63391  Biso   1.000  C
  C102     1.0000 0.63391  0.80569  0.63391  Biso   1.000  C
  C103     1.0000 0.80569  0.63391  0.63391  Biso   1.000  C
  C104     1.0000 0.92649  0.63391  0.63391  Biso   1.000  C
  C105     1.0000 0.63391  0.92649  0.80569  Biso   1.000  C
  C106     1.0000 0.63391  0.80569  0.92649  Biso   1.000  C
  O1       1.0000 0.68847  0.35073  0.47136  Biso   1.000  O
  O2       1.0000 0.09905  0.76130  0.06084  Biso   1.000  O
  O3       1.0000 0.92410  0.93626  0.06084  Biso   1.000  O
  O4       1.0000 0.51351  0.52569  0.47136  Biso   1.000  O
  O5       1.0000 0.51332  0.35053  0.64648  Biso   1.000  O
  O6       1.0000 0.51345  0.35066  0.47115  Biso   1.000  O
  O7       1.0000 0.09925  0.93646  0.88573  Biso   1.000  O
  O8       1.0000 0.09912  0.93633  0.06105  Biso   1.000  O
  O9       1.0000 0.35024  0.70582  0.61326  Biso   1.000  O
  O10      1.0000 0.34711  0.49238  0.82792  Biso   1.000  O
  O11      1.0000 0.35387  0.70383  0.30968  Biso   1.000  O
  O12      1.0000 0.35336  0.49120  0.30436  Biso   1.000  O
  O13      1.0000 0.86773  0.49180  0.31149  Biso   1.000  O
  O14      1.0000 0.74395  0.09954  0.91895  Biso   1.000  O
  O15      1.0000 0.95741  0.10266  0.70428  Biso   1.000  O
  O16      1.0000 0.74594  0.09591  0.22253  Biso   1.000  O
  O17      1.0000 0.95859  0.09641  0.22785  Biso   1.000  O
  O18      1.0000 0.95798  0.58206  0.22072  Biso   1.000  O
  O19      1.0000 0.26232  0.58117  0.91895  Biso   1.000  O
  O20      1.0000 0.26545  0.79461  0.70428  Biso   1.000  O
  O21      1.0000 0.25869  0.58316  0.22253  Biso   1.000  O
  O22      1.0000 0.25920  0.79579  0.22785  Biso   1.000  O
  O23      1.0000 0.74484  0.79519  0.22072  Biso   1.000  O
  O24      1.0000 0.86862  0.18745  0.61326  Biso   1.000  O
  O25      1.0000 0.65516  0.18433  0.82792  Biso   1.000  O
  O26      1.0000 0.86663  0.19108  0.30968  Biso   1.000  O
  O27      1.0000 0.65398  0.19058  0.30436  Biso   1.000  O
  O28      1.0000 0.65459  0.70493  0.31149  Biso   1.000  O
  O29      1.0000 0.35154  0.18876  0.61256  Biso   1.000  O
  O30      1.0000 0.34882  0.18604  0.83184  Biso   1.000  O
  O31      1.0000 0.26102  0.09823  0.91965  Biso   1.000  O
  O32      1.0000 0.26374  0.10095  0.70037  Biso   1.000  O
  O33      1.0000 0.41846  0.53543  0.65210  Biso   1.000  O
  O34      1.0000 0.35946  0.59262  0.71271  Biso   1.000  O
  O35      1.0000 0.33328  0.67922  0.67578  Biso   1.000  O
  O36      1.0000 0.33146  0.55479  0.80223  Biso   1.000  O
  O37      1.0000 0.41888  0.53424  0.37451  Biso   1.000  O
  O38      1.0000 0.36279  0.59014  0.31741  Biso   1.000  O
  O39      1.0000 0.33491  0.67804  0.29212  Biso   1.000  O
  O40      1.0000 0.33450  0.55341  0.28871  Biso   1.000  O
  O41      1.0000 0.84134  0.55411  0.29192  Biso   1.000  O
  O42      1.0000 0.91436  0.03131  0.88011  Biso   1.000  O
  O43      1.0000 0.85717  0.09031  0.81949  Biso   1.000  O
  O44      1.0000 0.77054  0.11650  0.85642  Biso   1.000  O
  O45      1.0000 0.89500  0.11831  0.72997  Biso   1.000  O
  O46      1.0000 0.91554  0.03089  0.15770  Biso   1.000  O
  O47      1.0000 0.85965  0.08698  0.21480  Biso   1.000  O
  O48      1.0000 0.77173  0.11487  0.24009  Biso   1.000  O
  O49      1.0000 0.89637  0.11527  0.24350  Biso   1.000  O
  O50      1.0000 0.89567  0.60845  0.24029  Biso   1.000  O
  O51      1.0000 0.19410  0.75156  0.88011  Biso   1.000  O
  O52      1.0000 0.25311  0.69437  0.81949  Biso   1.000  O
  O53      1.0000 0.27928  0.60777  0.85642  Biso   1.000  O
  O54      1.0000 0.28110  0.73220  0.72997  Biso   1.000  O
  O55      1.0000 0.19369  0.75275  0.15770  Biso   1.000  O
  O56      1.0000 0.24977  0.69686  0.21480  Biso   1.000  O
  O57      1.0000 0.27766  0.60895  0.24009  Biso   1.000  O
  O58      1.0000 0.27807  0.73358  0.24350  Biso   1.000  O
  O59      1.0000 0.77123  0.73288  0.24029  Biso   1.000  O
  O60      1.0000 0.69821  0.25568  0.65210  Biso   1.000  O
  O61      1.0000 0.75540  0.19668  0.71271  Biso   1.000  O
  O62      1.0000 0.84202  0.17049  0.67578  Biso   1.000  O
  O63      1.0000 0.71757  0.16868  0.80223  Biso   1.000  O
  O64      1.0000 0.69702  0.25610  0.37451  Biso   1.000  O
  O65      1.0000 0.75291  0.20001  0.31741  Biso   1.000  O
  O66      1.0000 0.84084  0.17212  0.29212  Biso   1.000  O
  O67      1.0000 0.71619  0.17172  0.28871  Biso   1.000  O
  O68      1.0000 0.71690  0.67854  0.29192  Biso   1.000  O
  O69      1.0000 0.41676  0.25398  0.65872  Biso   1.000  O
  O70      1.0000 0.36047  0.19768  0.71191  Biso   1.000  O
  O71      1.0000 0.33378  0.17099  0.67478  Biso   1.000  O
  O72      1.0000 0.33137  0.16858  0.80424  Biso   1.000  O
  O73      1.0000 0.69411  0.53133  0.37973  Biso   1.000  O
  O74      1.0000 0.75452  0.59174  0.31751  Biso   1.000  O
  O75      1.0000 0.19581  0.03301  0.87349  Biso   1.000  O
  O76      1.0000 0.25210  0.08931  0.82030  Biso   1.000  O
  O77      1.0000 0.27879  0.11600  0.85743  Biso   1.000  O
  O78      1.0000 0.28120  0.11841  0.72797  Biso   1.000  O
  O79      1.0000 0.91846  0.75566  0.15248  Biso   1.000  O
  O80      1.0000 0.85805  0.69525  0.21470  Biso   1.000  O
  O81      1.0000 0.43863  0.44944  0.69575  Biso   1.000  O
  O82      1.0000 0.44104  0.57607  0.56910  Biso   1.000  O
  O83      1.0000 0.43835  0.44835  0.39990  Biso   1.000  O
  O84      1.0000 0.44055  0.57458  0.39709  Biso   1.000  O
  O85      1.0000 0.73665  0.44805  0.39940  Biso   1.000  O
  O86      1.0000 0.00035  0.01114  0.83645  Biso   1.000  O
  O87      1.0000 0.87372  0.00873  0.96310  Biso   1.000  O
  O88      1.0000 0.00144  0.01143  0.13231  Biso   1.000  O
  O89      1.0000 0.87521  0.00922  0.13512  Biso   1.000  O
  O90      1.0000 0.00174  0.71311  0.13281  Biso   1.000  O
  O91      1.0000 0.17394  0.83755  0.83645  Biso   1.000  O
  O92      1.0000 0.17152  0.71092  0.96310  Biso   1.000  O
  O93      1.0000 0.17422  0.83864  0.13231  Biso   1.000  O
  O94      1.0000 0.17201  0.71241  0.13512  Biso   1.000  O
  O95      1.0000 0.87591  0.83894  0.13281  Biso   1.000  O
  O96      1.0000 0.61222  0.27585  0.69575  Biso   1.000  O
  O97      1.0000 0.73885  0.27826  0.56910  Biso   1.000  O
  O98      1.0000 0.61113  0.27556  0.39990  Biso   1.000  O
  O99      1.0000 0.73736  0.27777  0.39709  Biso   1.000  O
  O100     1.0000 0.61083  0.57388  0.39940  Biso   1.000  O
  O101     1.0000 0.55704  0.39426  0.51541  Biso   1.000  O
  O102     1.0000 0.44004  0.27725  0.69475  Biso   1.000  O
  O103     1.0000 0.43844  0.27565  0.57382  Biso   1.000  O
  O104     1.0000 0.05553  0.89273  0.01680  Biso   1.000  O
  O105     1.0000 0.17253  0.00974  0.83746  Biso   1.000  O
  O106     1.0000 0.17413  0.01134  0.95839  Biso   1.000  O
