data_image0
_cell_length_a       18.2359
_cell_length_b       18.2359
_cell_length_c       18.2359
_cell_angle_alpha    60
_cell_angle_beta     60
_cell_angle_gamma    60

_symmetry_space_group_name_H-M    "P 1"
_symmetry_int_tables_number       1

loop_
  _symmetry_equiv_pos_as_xyz
  'x, y, z'

loop_
  _atom_site_label
  _atom_site_occupancy
  _atom_site_fract_x
  _atom_site_fract_y
  _atom_site_fract_z
  _atom_site_thermal_displace_type
  _atom_site_B_iso_or_equiv
  _atom_site_type_symbol
  Zn1      1.0000 0.29356  0.29357  0.11930  Biso   1.000  Zn
  Zn2      1.0000 0.29356  0.29357  0.29357  Biso   1.000  Zn
  Zn3      1.0000 0.11929  0.29357  0.29357  Biso   1.000  Zn
  Zn4      1.0000 0.29356  0.11930  0.29357  Biso   1.000  Zn
  Zn5      1.0000 0.70644  0.70643  0.88070  Biso   1.000  Zn
  Zn6      1.0000 0.70644  0.70643  0.70643  Biso   1.000  Zn
  Zn7      1.0000 0.70644  0.88070  0.70643  Biso   1.000  Zn
  Zn8      1.0000 0.88071  0.70643  0.70643  Biso   1.000  Zn
  H1       1.0000 0.45600  0.45600  0.93640  Biso   1.000  H
  H2       1.0000 0.45600  0.45600  0.15160  Biso   1.000  H
  H3       1.0000 0.93640  0.15160  0.45600  Biso   1.000  H
  H4       1.0000 0.15160  0.93640  0.45600  Biso   1.000  H
  H5       1.0000 0.45600  0.93640  0.15160  Biso   1.000  H
  H6       1.0000 0.45600  0.15160  0.93640  Biso   1.000  H
  H7       1.0000 0.93640  0.45600  0.45600  Biso   1.000  H
  H8       1.0000 0.15160  0.45600  0.45600  Biso   1.000  H
  H9       1.0000 0.45600  0.15160  0.45600  Biso   1.000  H
  H10      1.0000 0.45600  0.93640  0.45600  Biso   1.000  H
  H11      1.0000 0.93640  0.45600  0.15160  Biso   1.000  H
  H12      1.0000 0.15160  0.45600  0.93640  Biso   1.000  H
  H13      1.0000 0.54400  0.54400  0.06360  Biso   1.000  H
  H14      1.0000 0.54400  0.54400  0.84840  Biso   1.000  H
  H15      1.0000 0.84840  0.06360  0.54400  Biso   1.000  H
  H16      1.0000 0.06360  0.84840  0.54400  Biso   1.000  H
  H17      1.0000 0.06360  0.54400  0.84840  Biso   1.000  H
  H18      1.0000 0.84840  0.54400  0.06360  Biso   1.000  H
  H19      1.0000 0.54400  0.06360  0.54400  Biso   1.000  H
  H20      1.0000 0.54400  0.84840  0.54400  Biso   1.000  H
  H21      1.0000 0.84840  0.54400  0.54400  Biso   1.000  H
  H22      1.0000 0.06360  0.54400  0.54400  Biso   1.000  H
  H23      1.0000 0.54400  0.06360  0.84840  Biso   1.000  H
  H24      1.0000 0.54400  0.84840  0.06360  Biso   1.000  H
  C1       1.0000 0.47360  0.47360  0.96320  Biso   1.000  C
  C2       1.0000 0.47360  0.47360  0.08960  Biso   1.000  C
  C3       1.0000 0.96320  0.08960  0.47360  Biso   1.000  C
  C4       1.0000 0.08960  0.96320  0.47360  Biso   1.000  C
  C5       1.0000 0.47360  0.96320  0.08960  Biso   1.000  C
  C6       1.0000 0.47360  0.08960  0.96320  Biso   1.000  C
  C7       1.0000 0.96320  0.47360  0.47360  Biso   1.000  C
  C8       1.0000 0.08960  0.47360  0.47360  Biso   1.000  C
  C9       1.0000 0.47360  0.08960  0.47360  Biso   1.000  C
  C10      1.0000 0.47360  0.96320  0.47360  Biso   1.000  C
  C11      1.0000 0.96320  0.47360  0.08960  Biso   1.000  C
  C12      1.0000 0.08960  0.47360  0.96320  Biso   1.000  C
  C13      1.0000 0.52640  0.52640  0.03680  Biso   1.000  C
  C14      1.0000 0.52640  0.52640  0.91040  Biso   1.000  C
  C15      1.0000 0.91040  0.03680  0.52640  Biso   1.000  C
  C16      1.0000 0.03680  0.91040  0.52640  Biso   1.000  C
  C17      1.0000 0.03680  0.52640  0.91040  Biso   1.000  C
  C18      1.0000 0.91040  0.52640  0.03680  Biso   1.000  C
  C19      1.0000 0.52640  0.03680  0.52640  Biso   1.000  C
  C20      1.0000 0.52640  0.91040  0.52640  Biso   1.000  C
  C21      1.0000 0.91040  0.52640  0.52640  Biso   1.000  C
  C22      1.0000 0.03680  0.52640  0.52640  Biso   1.000  C
  C23      1.0000 0.52640  0.03680  0.91040  Biso   1.000  C
  C24      1.0000 0.52640  0.91040  0.03680  Biso   1.000  C
  C25      1.0000 0.38860  0.38860  0.11140  Biso   1.000  C
  C26      1.0000 0.44630  0.44630  0.05370  Biso   1.000  C
  C27      1.0000 0.11140  0.11140  0.38860  Biso   1.000  C
  C28      1.0000 0.05370  0.05370  0.44630  Biso   1.000  C
  C29      1.0000 0.38860  0.11140  0.11140  Biso   1.000  C
  C30      1.0000 0.44630  0.05370  0.05370  Biso   1.000  C
  C31      1.0000 0.11140  0.38860  0.38860  Biso   1.000  C
  C32      1.0000 0.05370  0.44630  0.44630  Biso   1.000  C
  C33      1.0000 0.38860  0.11140  0.38860  Biso   1.000  C
  C34      1.0000 0.44630  0.05370  0.44630  Biso   1.000  C
  C35      1.0000 0.11140  0.38860  0.11140  Biso   1.000  C
  C36      1.0000 0.05370  0.44630  0.05370  Biso   1.000  C
  C37      1.0000 0.61140  0.61140  0.88860  Biso   1.000  C
  C38      1.0000 0.55370  0.55370  0.94630  Biso   1.000  C
  C39      1.0000 0.88860  0.88860  0.61140  Biso   1.000  C
  C40      1.0000 0.94630  0.94630  0.55370  Biso   1.000  C
  C41      1.0000 0.88860  0.61140  0.88860  Biso   1.000  C
  C42      1.0000 0.94630  0.55370  0.94630  Biso   1.000  C
  C43      1.0000 0.61140  0.88860  0.61140  Biso   1.000  C
  C44      1.0000 0.55370  0.94630  0.55370  Biso   1.000  C
  C45      1.0000 0.88860  0.61140  0.61140  Biso   1.000  C
  C46      1.0000 0.94630  0.55370  0.55370  Biso   1.000  C
  C47      1.0000 0.61140  0.88860  0.88860  Biso   1.000  C
  C48      1.0000 0.55370  0.94630  0.94630  Biso   1.000  C
  O1       1.0000 0.25000  0.25000  0.25000  Biso   1.000  O
  O2       1.0000 0.75000  0.75000  0.75000  Biso   1.000  O
  O3       1.0000 0.36605  0.36605  0.07323  Biso   1.000  O
  O4       1.0000 0.36605  0.36605  0.19467  Biso   1.000  O
  O5       1.0000 0.07323  0.19467  0.36605  Biso   1.000  O
  O6       1.0000 0.19467  0.07323  0.36605  Biso   1.000  O
  O7       1.0000 0.36605  0.07323  0.19467  Biso   1.000  O
  O8       1.0000 0.36605  0.19467  0.07323  Biso   1.000  O
  O9       1.0000 0.07323  0.36605  0.36605  Biso   1.000  O
  O10      1.0000 0.19467  0.36605  0.36605  Biso   1.000  O
  O11      1.0000 0.36605  0.19467  0.36605  Biso   1.000  O
  O12      1.0000 0.36605  0.07323  0.36605  Biso   1.000  O
  O13      1.0000 0.07323  0.36605  0.19467  Biso   1.000  O
  O14      1.0000 0.19467  0.36605  0.07323  Biso   1.000  O
  O15      1.0000 0.63395  0.63395  0.92677  Biso   1.000  O
  O16      1.0000 0.63395  0.63395  0.80533  Biso   1.000  O
  O17      1.0000 0.80533  0.92677  0.63395  Biso   1.000  O
  O18      1.0000 0.92677  0.80533  0.63395  Biso   1.000  O
  O19      1.0000 0.92677  0.63395  0.80533  Biso   1.000  O
  O20      1.0000 0.80533  0.63395  0.92677  Biso   1.000  O
  O21      1.0000 0.63395  0.92677  0.63395  Biso   1.000  O
  O22      1.0000 0.63395  0.80533  0.63395  Biso   1.000  O
  O23      1.0000 0.80533  0.63395  0.63395  Biso   1.000  O
  O24      1.0000 0.92677  0.63395  0.63395  Biso   1.000  O
  O25      1.0000 0.63395  0.92677  0.80533  Biso   1.000  O
  O26      1.0000 0.63395  0.80533  0.92677  Biso   1.000  O
  Zn9      1.0000 0.89112  0.75887  0.43301  Biso   1.000  Zn
  Zn10     1.0000 0.06539  0.75887  0.25874  Biso   1.000  Zn
  Zn11     1.0000 0.89112  0.75887  0.25874  Biso   1.000  Zn
  Zn12     1.0000 0.89112  0.93314  0.25874  Biso   1.000  Zn
  Zn13     1.0000 0.47826  0.34601  0.67161  Biso   1.000  Zn
  Zn14     1.0000 0.30399  0.34601  0.84588  Biso   1.000  Zn
  Zn15     1.0000 0.47826  0.17174  0.84588  Biso   1.000  Zn
  Zn16     1.0000 0.47826  0.34601  0.84588  Biso   1.000  Zn
  H25      1.0000 0.03309  0.59644  0.61591  Biso   1.000  H
  H26      1.0000 0.24829  0.59644  0.40071  Biso   1.000  H
  H27      1.0000 0.72869  0.90084  0.09631  Biso   1.000  H
  H28      1.0000 0.72869  0.11604  0.09631  Biso   1.000  H
  H29      1.0000 0.72869  0.11604  0.40071  Biso   1.000  H
  H30      1.0000 0.72869  0.90084  0.61591  Biso   1.000  H
  H31      1.0000 0.03309  0.59644  0.09631  Biso   1.000  H
  H32      1.0000 0.24829  0.59644  0.09631  Biso   1.000  H
  H33      1.0000 0.24829  0.90084  0.09631  Biso   1.000  H
  H34      1.0000 0.03309  0.11604  0.09631  Biso   1.000  H
  H35      1.0000 0.72869  0.59644  0.40071  Biso   1.000  H
  H36      1.0000 0.72869  0.59644  0.61591  Biso   1.000  H
  H37      1.0000 0.33629  0.50844  0.48871  Biso   1.000  H
  H38      1.0000 0.12109  0.50844  0.70391  Biso   1.000  H
  H39      1.0000 0.64069  0.98884  0.00831  Biso   1.000  H
  H40      1.0000 0.64069  0.20404  0.00831  Biso   1.000  H
  H41      1.0000 0.64069  0.50844  0.70391  Biso   1.000  H
  H42      1.0000 0.64069  0.50844  0.48871  Biso   1.000  H
  H43      1.0000 0.33629  0.98884  0.00831  Biso   1.000  H
  H44      1.0000 0.12109  0.20404  0.00831  Biso   1.000  H
  H45      1.0000 0.12109  0.50844  0.00831  Biso   1.000  H
  H46      1.0000 0.33629  0.50844  0.00831  Biso   1.000  H
  H47      1.0000 0.64069  0.98884  0.70391  Biso   1.000  H
  H48      1.0000 0.64069  0.20404  0.48871  Biso   1.000  H
  C49      1.0000 0.09509  0.57884  0.58911  Biso   1.000  C
  C50      1.0000 0.22149  0.57884  0.46271  Biso   1.000  C
  C51      1.0000 0.71109  0.96284  0.07871  Biso   1.000  C
  C52      1.0000 0.71109  0.08924  0.07871  Biso   1.000  C
  C53      1.0000 0.71109  0.08924  0.46271  Biso   1.000  C
  C54      1.0000 0.71109  0.96284  0.58911  Biso   1.000  C
  C55      1.0000 0.09509  0.57884  0.07871  Biso   1.000  C
  C56      1.0000 0.22149  0.57884  0.07871  Biso   1.000  C
  C57      1.0000 0.22149  0.96284  0.07871  Biso   1.000  C
  C58      1.0000 0.09509  0.08924  0.07871  Biso   1.000  C
  C59      1.0000 0.71109  0.57884  0.46271  Biso   1.000  C
  C60      1.0000 0.71109  0.57884  0.58911  Biso   1.000  C
  C61      1.0000 0.27429  0.52604  0.51551  Biso   1.000  C
  C62      1.0000 0.14789  0.52604  0.64191  Biso   1.000  C
  C63      1.0000 0.65829  0.01564  0.02591  Biso   1.000  C
  C64      1.0000 0.65829  0.14204  0.02591  Biso   1.000  C
  C65      1.0000 0.65829  0.52604  0.64191  Biso   1.000  C
  C66      1.0000 0.65829  0.52604  0.51551  Biso   1.000  C
  C67      1.0000 0.27429  0.01564  0.02591  Biso   1.000  C
  C68      1.0000 0.14789  0.14204  0.02591  Biso   1.000  C
  C69      1.0000 0.14789  0.52604  0.02591  Biso   1.000  C
  C70      1.0000 0.27429  0.52604  0.02591  Biso   1.000  C
  C71      1.0000 0.65829  0.01564  0.64191  Biso   1.000  C
  C72      1.0000 0.65829  0.14204  0.51551  Biso   1.000  C
  C73      1.0000 0.07329  0.66384  0.44091  Biso   1.000  C
  C74      1.0000 0.13099  0.60614  0.49861  Biso   1.000  C
  C75      1.0000 0.79609  0.94104  0.16371  Biso   1.000  C
  C76      1.0000 0.73839  0.99874  0.10601  Biso   1.000  C
  C77      1.0000 0.79609  0.94104  0.44091  Biso   1.000  C
  C78      1.0000 0.73839  0.99874  0.49861  Biso   1.000  C
  C79      1.0000 0.07329  0.66384  0.16371  Biso   1.000  C
  C80      1.0000 0.13099  0.60614  0.10601  Biso   1.000  C
  C81      1.0000 0.07329  0.94104  0.16371  Biso   1.000  C
  C82      1.0000 0.13099  0.99874  0.10601  Biso   1.000  C
  C83      1.0000 0.79609  0.66384  0.44091  Biso   1.000  C
  C84      1.0000 0.73839  0.60614  0.49861  Biso   1.000  C
  C85      1.0000 0.29609  0.44104  0.66371  Biso   1.000  C
  C86      1.0000 0.23839  0.49874  0.60601  Biso   1.000  C
  C87      1.0000 0.57329  0.16384  0.94091  Biso   1.000  C
  C88      1.0000 0.63099  0.10614  0.99861  Biso   1.000  C
  C89      1.0000 0.57329  0.44104  0.66371  Biso   1.000  C
  C90      1.0000 0.63099  0.49874  0.60601  Biso   1.000  C
  C91      1.0000 0.29609  0.16384  0.94091  Biso   1.000  C
  C92      1.0000 0.23839  0.10614  0.99861  Biso   1.000  C
  C93      1.0000 0.29609  0.44104  0.94091  Biso   1.000  C
  C94      1.0000 0.23839  0.49874  0.99861  Biso   1.000  C
  C95      1.0000 0.57329  0.16384  0.66371  Biso   1.000  C
  C96      1.0000 0.63099  0.10614  0.60601  Biso   1.000  C
  O27      1.0000 0.93469  0.80244  0.30231  Biso   1.000  O
  O28      1.0000 0.43469  0.30244  0.80231  Biso   1.000  O
  O29      1.0000 0.99002  0.68639  0.47908  Biso   1.000  O
  O30      1.0000 0.11146  0.68639  0.35764  Biso   1.000  O
  O31      1.0000 0.81864  0.85777  0.18626  Biso   1.000  O
  O32      1.0000 0.81864  0.97921  0.18626  Biso   1.000  O
  O33      1.0000 0.81864  0.97921  0.35764  Biso   1.000  O
  O34      1.0000 0.81864  0.85777  0.47908  Biso   1.000  O
  O35      1.0000 0.99002  0.68639  0.18626  Biso   1.000  O
  O36      1.0000 0.11146  0.68639  0.18626  Biso   1.000  O
  O37      1.0000 0.11146  0.85777  0.18626  Biso   1.000  O
  O38      1.0000 0.99002  0.97921  0.18626  Biso   1.000  O
  O39      1.0000 0.81864  0.68639  0.35764  Biso   1.000  O
  O40      1.0000 0.81864  0.68639  0.47908  Biso   1.000  O
  O41      1.0000 0.37936  0.41849  0.62554  Biso   1.000  O
  O42      1.0000 0.25792  0.41849  0.74698  Biso   1.000  O
  O43      1.0000 0.55074  0.12567  0.91836  Biso   1.000  O
  O44      1.0000 0.55074  0.24711  0.91836  Biso   1.000  O
  O45      1.0000 0.55074  0.41849  0.74698  Biso   1.000  O
  O46      1.0000 0.55074  0.41849  0.62554  Biso   1.000  O
  O47      1.0000 0.37936  0.12567  0.91836  Biso   1.000  O
  O48      1.0000 0.25792  0.24711  0.91836  Biso   1.000  O
  O49      1.0000 0.25792  0.41849  0.91836  Biso   1.000  O
  O50      1.0000 0.37936  0.41849  0.91836  Biso   1.000  O
  O51      1.0000 0.55074  0.12567  0.74698  Biso   1.000  O
  O52      1.0000 0.55074  0.24711  0.62554  Biso   1.000  O
