data_image0
_cell_length_a       18.2965
_cell_length_b       18.2965
_cell_length_c       18.2965
_cell_angle_alpha    60
_cell_angle_beta     60
_cell_angle_gamma    60

_symmetry_space_group_name_H-M    "P 1"
_symmetry_int_tables_number       1

loop_
  _symmetry_equiv_pos_as_xyz
  'x, y, z'

loop_
  _atom_site_label
  _atom_site_occupancy
  _atom_site_fract_x
  _atom_site_fract_y
  _atom_site_fract_z
  _atom_site_thermal_displace_type
  _atom_site_B_iso_or_equiv
  _atom_site_type_symbol
  Zn1      1.0000 0.29344  0.29343  0.11970  Biso   1.000  Zn
  Zn2      1.0000 0.29344  0.29343  0.29343  Biso   1.000  Zn
  Zn3      1.0000 0.11971  0.29343  0.29343  Biso   1.000  Zn
  Zn4      1.0000 0.29344  0.11970  0.29343  Biso   1.000  Zn
  Zn5      1.0000 0.70656  0.70657  0.88030  Biso   1.000  Zn
  Zn6      1.0000 0.70656  0.70657  0.70657  Biso   1.000  Zn
  Zn7      1.0000 0.70656  0.88030  0.70657  Biso   1.000  Zn
  Zn8      1.0000 0.88029  0.70657  0.70657  Biso   1.000  Zn
  H1       1.0000 0.45520  0.45520  0.93480  Biso   1.000  H
  H2       1.0000 0.45520  0.45520  0.15480  Biso   1.000  H
  H3       1.0000 0.93480  0.15480  0.45520  Biso   1.000  H
  H4       1.0000 0.15480  0.93480  0.45520  Biso   1.000  H
  H5       1.0000 0.45520  0.93480  0.15480  Biso   1.000  H
  H6       1.0000 0.45520  0.15480  0.93480  Biso   1.000  H
  H7       1.0000 0.93480  0.45520  0.45520  Biso   1.000  H
  H8       1.0000 0.15480  0.45520  0.45520  Biso   1.000  H
  H9       1.0000 0.45520  0.15480  0.45520  Biso   1.000  H
  H10      1.0000 0.45520  0.93480  0.45520  Biso   1.000  H
  H11      1.0000 0.93480  0.45520  0.15480  Biso   1.000  H
  H12      1.0000 0.15480  0.45520  0.93480  Biso   1.000  H
  H13      1.0000 0.54480  0.54480  0.06520  Biso   1.000  H
  H14      1.0000 0.54480  0.54480  0.84520  Biso   1.000  H
  H15      1.0000 0.84520  0.06520  0.54480  Biso   1.000  H
  H16      1.0000 0.06520  0.84520  0.54480  Biso   1.000  H
  H17      1.0000 0.06520  0.54480  0.84520  Biso   1.000  H
  H18      1.0000 0.84520  0.54480  0.06520  Biso   1.000  H
  H19      1.0000 0.54480  0.06520  0.54480  Biso   1.000  H
  H20      1.0000 0.54480  0.84520  0.54480  Biso   1.000  H
  H21      1.0000 0.84520  0.54480  0.54480  Biso   1.000  H
  H22      1.0000 0.06520  0.54480  0.54480  Biso   1.000  H
  H23      1.0000 0.54480  0.06520  0.84520  Biso   1.000  H
  H24      1.0000 0.54480  0.84520  0.06520  Biso   1.000  H
  C1       1.0000 0.47339  0.47339  0.96175  Biso   1.000  C
  C2       1.0000 0.47339  0.47339  0.09147  Biso   1.000  C
  C3       1.0000 0.96175  0.09147  0.47339  Biso   1.000  C
  C4       1.0000 0.09147  0.96175  0.47339  Biso   1.000  C
  C5       1.0000 0.47339  0.96175  0.09147  Biso   1.000  C
  C6       1.0000 0.47339  0.09147  0.96175  Biso   1.000  C
  C7       1.0000 0.96175  0.47339  0.47339  Biso   1.000  C
  C8       1.0000 0.09147  0.47339  0.47339  Biso   1.000  C
  C9       1.0000 0.47339  0.09147  0.47339  Biso   1.000  C
  C10      1.0000 0.47339  0.96175  0.47339  Biso   1.000  C
  C11      1.0000 0.96175  0.47339  0.09147  Biso   1.000  C
  C12      1.0000 0.09147  0.47339  0.96175  Biso   1.000  C
  C13      1.0000 0.52661  0.52661  0.03825  Biso   1.000  C
  C14      1.0000 0.52661  0.52661  0.90853  Biso   1.000  C
  C15      1.0000 0.90853  0.03825  0.52661  Biso   1.000  C
  C16      1.0000 0.03825  0.90853  0.52661  Biso   1.000  C
  C17      1.0000 0.03825  0.52661  0.90853  Biso   1.000  C
  C18      1.0000 0.90853  0.52661  0.03825  Biso   1.000  C
  C19      1.0000 0.52661  0.03825  0.52661  Biso   1.000  C
  C20      1.0000 0.52661  0.90853  0.52661  Biso   1.000  C
  C21      1.0000 0.90853  0.52661  0.52661  Biso   1.000  C
  C22      1.0000 0.03825  0.52661  0.52661  Biso   1.000  C
  C23      1.0000 0.52661  0.03825  0.90853  Biso   1.000  C
  C24      1.0000 0.52661  0.90853  0.03825  Biso   1.000  C
  C25      1.0000 0.38840  0.38840  0.11160  Biso   1.000  C
  C26      1.0000 0.44637  0.44637  0.05363  Biso   1.000  C
  C27      1.0000 0.11160  0.11160  0.38840  Biso   1.000  C
  C28      1.0000 0.05363  0.05363  0.44637  Biso   1.000  C
  C29      1.0000 0.38840  0.11160  0.11160  Biso   1.000  C
  C30      1.0000 0.44637  0.05363  0.05363  Biso   1.000  C
  C31      1.0000 0.11160  0.38840  0.38840  Biso   1.000  C
  C32      1.0000 0.05363  0.44637  0.44637  Biso   1.000  C
  C33      1.0000 0.38840  0.11160  0.38840  Biso   1.000  C
  C34      1.0000 0.44637  0.05363  0.44637  Biso   1.000  C
  C35      1.0000 0.11160  0.38840  0.11160  Biso   1.000  C
  C36      1.0000 0.05363  0.44637  0.05363  Biso   1.000  C
  C37      1.0000 0.61160  0.61160  0.88840  Biso   1.000  C
  C38      1.0000 0.55363  0.55363  0.94637  Biso   1.000  C
  C39      1.0000 0.88840  0.88840  0.61160  Biso   1.000  C
  C40      1.0000 0.94637  0.94637  0.55363  Biso   1.000  C
  C41      1.0000 0.88840  0.61160  0.88840  Biso   1.000  C
  C42      1.0000 0.94637  0.55363  0.94637  Biso   1.000  C
  C43      1.0000 0.61160  0.88840  0.61160  Biso   1.000  C
  C44      1.0000 0.55363  0.94637  0.55363  Biso   1.000  C
  C45      1.0000 0.88840  0.61160  0.61160  Biso   1.000  C
  C46      1.0000 0.94637  0.55363  0.55363  Biso   1.000  C
  C47      1.0000 0.61160  0.88840  0.88840  Biso   1.000  C
  C48      1.0000 0.55363  0.94637  0.94637  Biso   1.000  C
  O1       1.0000 0.25000  0.25000  0.25000  Biso   1.000  O
  O2       1.0000 0.75000  0.75000  0.75000  Biso   1.000  O
  O3       1.0000 0.36613  0.36613  0.07281  Biso   1.000  O
  O4       1.0000 0.36613  0.36613  0.19493  Biso   1.000  O
  O5       1.0000 0.07281  0.19493  0.36613  Biso   1.000  O
  O6       1.0000 0.19493  0.07281  0.36613  Biso   1.000  O
  O7       1.0000 0.36613  0.07281  0.19493  Biso   1.000  O
  O8       1.0000 0.36613  0.19493  0.07281  Biso   1.000  O
  O9       1.0000 0.07281  0.36613  0.36613  Biso   1.000  O
  O10      1.0000 0.19493  0.36613  0.36613  Biso   1.000  O
  O11      1.0000 0.36613  0.19493  0.36613  Biso   1.000  O
  O12      1.0000 0.36613  0.07281  0.36613  Biso   1.000  O
  O13      1.0000 0.07281  0.36613  0.19493  Biso   1.000  O
  O14      1.0000 0.19493  0.36613  0.07281  Biso   1.000  O
  O15      1.0000 0.63387  0.63387  0.92719  Biso   1.000  O
  O16      1.0000 0.63387  0.63387  0.80507  Biso   1.000  O
  O17      1.0000 0.80507  0.92719  0.63387  Biso   1.000  O
  O18      1.0000 0.92719  0.80507  0.63387  Biso   1.000  O
  O19      1.0000 0.92719  0.63387  0.80507  Biso   1.000  O
  O20      1.0000 0.80507  0.63387  0.92719  Biso   1.000  O
  O21      1.0000 0.63387  0.92719  0.63387  Biso   1.000  O
  O22      1.0000 0.63387  0.80507  0.63387  Biso   1.000  O
  O23      1.0000 0.80507  0.63387  0.63387  Biso   1.000  O
  O24      1.0000 0.92719  0.63387  0.63387  Biso   1.000  O
  O25      1.0000 0.63387  0.92719  0.80507  Biso   1.000  O
  O26      1.0000 0.63387  0.80507  0.92719  Biso   1.000  O
  Zn9      1.0000 0.59321  0.07788  0.72021  Biso   1.000  Zn
  Zn10     1.0000 0.59321  0.25183  0.72021  Biso   1.000  Zn
  Zn11     1.0000 0.41926  0.25183  0.72021  Biso   1.000  Zn
  Zn12     1.0000 0.59321  0.25183  0.54627  Biso   1.000  Zn
  Zn13     1.0000 0.00842  0.66413  0.13252  Biso   1.000  Zn
  Zn14     1.0000 0.00842  0.83808  0.13252  Biso   1.000  Zn
  Zn15     1.0000 0.18236  0.66413  0.13252  Biso   1.000  Zn
  Zn16     1.0000 0.00842  0.66413  0.30646  Biso   1.000  Zn
  H25      1.0000 0.45549  0.89218  0.88193  Biso   1.000  H
  H26      1.0000 0.75492  0.41354  0.58249  Biso   1.000  H
  H27      1.0000 0.23356  0.11411  0.88193  Biso   1.000  H
  H28      1.0000 0.75492  0.41354  0.36057  Biso   1.000  H
  H29      1.0000 0.23356  0.41354  0.58249  Biso   1.000  H
  H30      1.0000 0.75492  0.11411  0.88193  Biso   1.000  H
  H31      1.0000 0.45549  0.41354  0.36057  Biso   1.000  H
  H32      1.0000 0.75492  0.89218  0.88193  Biso   1.000  H
  H33      1.0000 0.75492  0.11411  0.36057  Biso   1.000  H
  H34      1.0000 0.45549  0.41354  0.88193  Biso   1.000  H
  H35      1.0000 0.75492  0.89218  0.58249  Biso   1.000  H
  H36      1.0000 0.23356  0.41354  0.88193  Biso   1.000  H
  H37      1.0000 0.14614  0.50242  0.97081  Biso   1.000  H
  H38      1.0000 0.84671  0.02378  0.27024  Biso   1.000  H
  H39      1.0000 0.36806  0.50242  0.97081  Biso   1.000  H
  H40      1.0000 0.84671  0.80185  0.49216  Biso   1.000  H
  H41      1.0000 0.36806  0.50242  0.27024  Biso   1.000  H
  H42      1.0000 0.84671  0.02378  0.97081  Biso   1.000  H
  H43      1.0000 0.14614  0.50242  0.49216  Biso   1.000  H
  H44      1.0000 0.84671  0.80185  0.97081  Biso   1.000  H
  H45      1.0000 0.84671  0.50242  0.49216  Biso   1.000  H
  H46      1.0000 0.14614  0.02378  0.97081  Biso   1.000  H
  H47      1.0000 0.84671  0.50242  0.27024  Biso   1.000  H
  H48      1.0000 0.36806  0.80185  0.97081  Biso   1.000  H
  C49      1.0000 0.39218  0.91877  0.90029  Biso   1.000  C
  C50      1.0000 0.77328  0.43190  0.51919  Biso   1.000  C
  C51      1.0000 0.26015  0.05081  0.90029  Biso   1.000  C
  C52      1.0000 0.77328  0.43190  0.38716  Biso   1.000  C
  C53      1.0000 0.26015  0.43190  0.51919  Biso   1.000  C
  C54      1.0000 0.77328  0.05080  0.90029  Biso   1.000  C
  C55      1.0000 0.39218  0.43190  0.38716  Biso   1.000  C
  C56      1.0000 0.77328  0.91877  0.90029  Biso   1.000  C
  C57      1.0000 0.77328  0.05081  0.38716  Biso   1.000  C
  C58      1.0000 0.39218  0.43190  0.90029  Biso   1.000  C
  C59      1.0000 0.77328  0.91877  0.51919  Biso   1.000  C
  C60      1.0000 0.26015  0.43190  0.90029  Biso   1.000  C
  C61      1.0000 0.20944  0.48406  0.95245  Biso   1.000  C
  C62      1.0000 0.82835  0.99719  0.33354  Biso   1.000  C
  C63      1.0000 0.34147  0.48406  0.95245  Biso   1.000  C
  C64      1.0000 0.82835  0.86516  0.46557  Biso   1.000  C
  C65      1.0000 0.34147  0.48406  0.33354  Biso   1.000  C
  C66      1.0000 0.82835  0.99719  0.95245  Biso   1.000  C
  C67      1.0000 0.20944  0.48406  0.46557  Biso   1.000  C
  C68      1.0000 0.82835  0.86516  0.95245  Biso   1.000  C
  C69      1.0000 0.82835  0.48406  0.46557  Biso   1.000  C
  C70      1.0000 0.20944  0.99719  0.95245  Biso   1.000  C
  C71      1.0000 0.82835  0.48406  0.33354  Biso   1.000  C
  C72      1.0000 0.34147  0.86516  0.95245  Biso   1.000  C
  C73      1.0000 0.41106  0.06968  0.81539  Biso   1.000  C
  C74      1.0000 0.35317  0.01179  0.87329  Biso   1.000  C
  C75      1.0000 0.68838  0.34701  0.53807  Biso   1.000  C
  C76      1.0000 0.74628  0.40490  0.48018  Biso   1.000  C
  C77      1.0000 0.41106  0.34701  0.53807  Biso   1.000  C
  C78      1.0000 0.35317  0.40490  0.48018  Biso   1.000  C
  C79      1.0000 0.68838  0.06968  0.81539  Biso   1.000  C
  C80      1.0000 0.74628  0.01179  0.87329  Biso   1.000  C
  C81      1.0000 0.68838  0.06968  0.53807  Biso   1.000  C
  C82      1.0000 0.74628  0.01179  0.48018  Biso   1.000  C
  C83      1.0000 0.41106  0.34701  0.81539  Biso   1.000  C
  C84      1.0000 0.35317  0.40490  0.87329  Biso   1.000  C
  C85      1.0000 0.19057  0.56895  0.03734  Biso   1.000  C
  C86      1.0000 0.24846  0.51106  0.97945  Biso   1.000  C
  C87      1.0000 0.91324  0.84628  0.31466  Biso   1.000  C
  C88      1.0000 0.85535  0.90417  0.37256  Biso   1.000  C
  C89      1.0000 0.19057  0.56896  0.31466  Biso   1.000  C
  C90      1.0000 0.24846  0.51106  0.37256  Biso   1.000  C
  C91      1.0000 0.91324  0.84628  0.03734  Biso   1.000  C
  C92      1.0000 0.85535  0.90417  0.97945  Biso   1.000  C
  C93      1.0000 0.91324  0.56896  0.31466  Biso   1.000  C
  C94      1.0000 0.85535  0.51106  0.37256  Biso   1.000  C
  C95      1.0000 0.19057  0.84628  0.03734  Biso   1.000  C
  C96      1.0000 0.24846  0.90417  0.97945  Biso   1.000  C
  O27      1.0000 0.54972  0.20834  0.67673  Biso   1.000  O
  O28      1.0000 0.05190  0.70762  0.17600  Biso   1.000  O
  O29      1.0000 0.49474  0.03043  0.79318  Biso   1.000  O
  O30      1.0000 0.66617  0.32479  0.62175  Biso   1.000  O
  O31      1.0000 0.37180  0.15336  0.79318  Biso   1.000  O
  O32      1.0000 0.66617  0.32479  0.49881  Biso   1.000  O
  O33      1.0000 0.37180  0.32479  0.62175  Biso   1.000  O
  O34      1.0000 0.66617  0.15336  0.79318  Biso   1.000  O
  O35      1.0000 0.49474  0.32479  0.49881  Biso   1.000  O
  O36      1.0000 0.66617  0.03043  0.79318  Biso   1.000  O
  O37      1.0000 0.66617  0.15336  0.49881  Biso   1.000  O
  O38      1.0000 0.49474  0.32479  0.79318  Biso   1.000  O
  O39      1.0000 0.66617  0.03043  0.62175  Biso   1.000  O
  O40      1.0000 0.37180  0.32479  0.79318  Biso   1.000  O
  O41      1.0000 0.10688  0.59117  0.05955  Biso   1.000  O
  O42      1.0000 0.93546  0.88553  0.23098  Biso   1.000  O
  O43      1.0000 0.22982  0.59117  0.05955  Biso   1.000  O
  O44      1.0000 0.93546  0.76260  0.35392  Biso   1.000  O
  O45      1.0000 0.22982  0.59117  0.23098  Biso   1.000  O
  O46      1.0000 0.93546  0.88553  0.05955  Biso   1.000  O
  O47      1.0000 0.10688  0.59117  0.35392  Biso   1.000  O
  O48      1.0000 0.93546  0.76260  0.05955  Biso   1.000  O
  O49      1.0000 0.93546  0.59117  0.35392  Biso   1.000  O
  O50      1.0000 0.10688  0.88553  0.05955  Biso   1.000  O
  O51      1.0000 0.93546  0.59117  0.23098  Biso   1.000  O
  O52      1.0000 0.22982  0.76260  0.05955  Biso   1.000  O
