data_image0
_cell_length_a       18.2344
_cell_length_b       18.2344
_cell_length_c       18.2344
_cell_angle_alpha    60
_cell_angle_beta     60
_cell_angle_gamma    60

_symmetry_space_group_name_H-M    "P 1"
_symmetry_int_tables_number       1

loop_
  _symmetry_equiv_pos_as_xyz
  'x, y, z'

loop_
  _atom_site_label
  _atom_site_occupancy
  _atom_site_fract_x
  _atom_site_fract_y
  _atom_site_fract_z
  _atom_site_thermal_displace_type
  _atom_site_B_iso_or_equiv
  _atom_site_type_symbol
  C1       1.0000 0.29357  0.29359  0.11925  Biso   1.000  C
  C2       1.0000 0.29358  0.29358  0.29359  Biso   1.000  C
  C3       1.0000 0.11924  0.29359  0.29358  Biso   1.000  C
  C4       1.0000 0.29358  0.11925  0.29359  Biso   1.000  C
  C5       1.0000 0.70642  0.70642  0.88075  Biso   1.000  C
  C6       1.0000 0.70641  0.70642  0.70642  Biso   1.000  C
  C7       1.0000 0.70642  0.88075  0.70642  Biso   1.000  C
  C8       1.0000 0.88075  0.70642  0.70641  Biso   1.000  C
  C9       1.0000 0.45590  0.45590  0.93650  Biso   1.000  C
  C10      1.0000 0.45590  0.45590  0.15170  Biso   1.000  C
  C11      1.0000 0.93650  0.15170  0.45590  Biso   1.000  C
  C12      1.0000 0.15170  0.93650  0.45590  Biso   1.000  C
  C13      1.0000 0.45590  0.93650  0.15170  Biso   1.000  C
  C14      1.0000 0.45590  0.15170  0.93650  Biso   1.000  C
  C15      1.0000 0.93650  0.45590  0.45590  Biso   1.000  C
  C16      1.0000 0.15170  0.45590  0.45590  Biso   1.000  C
  C17      1.0000 0.45590  0.15170  0.45590  Biso   1.000  C
  C18      1.0000 0.45590  0.93650  0.45590  Biso   1.000  C
  C19      1.0000 0.93650  0.45590  0.15170  Biso   1.000  C
  C20      1.0000 0.15170  0.45590  0.93650  Biso   1.000  C
  C21      1.0000 0.54410  0.54410  0.06350  Biso   1.000  C
  C22      1.0000 0.54410  0.54410  0.84830  Biso   1.000  C
  C23      1.0000 0.84830  0.06350  0.54410  Biso   1.000  C
  C24      1.0000 0.06350  0.84830  0.54410  Biso   1.000  C
  C25      1.0000 0.06350  0.54410  0.84830  Biso   1.000  C
  C26      1.0000 0.84830  0.54410  0.06350  Biso   1.000  C
  C27      1.0000 0.54410  0.06350  0.54410  Biso   1.000  C
  C28      1.0000 0.54410  0.84830  0.54410  Biso   1.000  C
  C29      1.0000 0.84830  0.54410  0.54410  Biso   1.000  C
  C30      1.0000 0.06350  0.54410  0.54410  Biso   1.000  C
  C31      1.0000 0.54410  0.06350  0.84830  Biso   1.000  C
  C32      1.0000 0.54410  0.84830  0.06350  Biso   1.000  C
  C33      1.0000 0.47360  0.47360  0.96326  Biso   1.000  C
  C34      1.0000 0.47360  0.47360  0.08954  Biso   1.000  C
  C35      1.0000 0.96326  0.08954  0.47360  Biso   1.000  C
  C36      1.0000 0.08954  0.96326  0.47360  Biso   1.000  C
  C37      1.0000 0.47360  0.96326  0.08954  Biso   1.000  C
  C38      1.0000 0.47360  0.08954  0.96326  Biso   1.000  C
  C39      1.0000 0.96326  0.47360  0.47360  Biso   1.000  C
  C40      1.0000 0.08954  0.47360  0.47360  Biso   1.000  C
  C41      1.0000 0.47360  0.08954  0.47360  Biso   1.000  C
  C42      1.0000 0.47360  0.96326  0.47360  Biso   1.000  C
  C43      1.0000 0.96326  0.47360  0.08954  Biso   1.000  C
  C44      1.0000 0.08954  0.47360  0.96326  Biso   1.000  C
  C45      1.0000 0.52640  0.52640  0.03674  Biso   1.000  C
  C46      1.0000 0.52640  0.52640  0.91046  Biso   1.000  C
  C47      1.0000 0.91046  0.03674  0.52640  Biso   1.000  C
  C48      1.0000 0.03674  0.91046  0.52640  Biso   1.000  C
  C49      1.0000 0.03674  0.52640  0.91046  Biso   1.000  C
  C50      1.0000 0.91046  0.52640  0.03674  Biso   1.000  C
  C51      1.0000 0.52640  0.03674  0.52640  Biso   1.000  C
  C52      1.0000 0.52640  0.91046  0.52640  Biso   1.000  C
  C53      1.0000 0.91046  0.52640  0.52640  Biso   1.000  C
  C54      1.0000 0.03674  0.52640  0.52640  Biso   1.000  C
  C55      1.0000 0.52640  0.03674  0.91046  Biso   1.000  C
  C56      1.0000 0.52640  0.91046  0.03674  Biso   1.000  C
  C57      1.0000 0.38860  0.38860  0.11140  Biso   1.000  C
  C58      1.0000 0.44640  0.44640  0.05360  Biso   1.000  C
  C59      1.0000 0.11140  0.11140  0.38860  Biso   1.000  C
  C60      1.0000 0.05360  0.05360  0.44640  Biso   1.000  C
  C61      1.0000 0.38860  0.11140  0.11140  Biso   1.000  C
  C62      1.0000 0.44640  0.05360  0.05360  Biso   1.000  C
  C63      1.0000 0.11140  0.38860  0.38860  Biso   1.000  C
  C64      1.0000 0.05360  0.44640  0.44640  Biso   1.000  C
  C65      1.0000 0.38860  0.11140  0.38860  Biso   1.000  C
  C66      1.0000 0.44640  0.05360  0.44640  Biso   1.000  C
  C67      1.0000 0.11140  0.38860  0.11140  Biso   1.000  C
  C68      1.0000 0.05360  0.44640  0.05360  Biso   1.000  C
  C69      1.0000 0.61140  0.61140  0.88860  Biso   1.000  C
  C70      1.0000 0.55360  0.55360  0.94640  Biso   1.000  C
  C71      1.0000 0.88860  0.88860  0.61140  Biso   1.000  C
  C72      1.0000 0.94640  0.94640  0.55360  Biso   1.000  C
  C73      1.0000 0.88860  0.61140  0.88860  Biso   1.000  C
  C74      1.0000 0.94640  0.55360  0.94640  Biso   1.000  C
  C75      1.0000 0.61140  0.88860  0.61140  Biso   1.000  C
  C76      1.0000 0.55360  0.94640  0.55360  Biso   1.000  C
  C77      1.0000 0.88860  0.61140  0.61140  Biso   1.000  C
  C78      1.0000 0.94640  0.55360  0.55360  Biso   1.000  C
  C79      1.0000 0.61140  0.88860  0.88860  Biso   1.000  C
  C80      1.0000 0.55360  0.94640  0.94640  Biso   1.000  C
  C81      1.0000 0.25000  0.25000  0.25000  Biso   1.000  C
  C82      1.0000 0.75000  0.75000  0.75000  Biso   1.000  C
  C83      1.0000 0.36604  0.36604  0.07340  Biso   1.000  C
  C84      1.0000 0.36604  0.36604  0.19452  Biso   1.000  C
  C85      1.0000 0.07340  0.19452  0.36604  Biso   1.000  C
  C86      1.0000 0.19452  0.07340  0.36604  Biso   1.000  C
  C87      1.0000 0.36604  0.07340  0.19452  Biso   1.000  C
  C88      1.0000 0.36604  0.19452  0.07340  Biso   1.000  C
  C89      1.0000 0.07340  0.36604  0.36604  Biso   1.000  C
  C90      1.0000 0.19452  0.36604  0.36604  Biso   1.000  C
  C91      1.0000 0.36604  0.19452  0.36604  Biso   1.000  C
  C92      1.0000 0.36604  0.07340  0.36604  Biso   1.000  C
  C93      1.0000 0.07340  0.36604  0.19452  Biso   1.000  C
  C94      1.0000 0.19452  0.36604  0.07340  Biso   1.000  C
  C95      1.0000 0.63396  0.63396  0.92660  Biso   1.000  C
  C96      1.0000 0.63396  0.63396  0.80548  Biso   1.000  C
  C97      1.0000 0.80548  0.92660  0.63396  Biso   1.000  C
  C98      1.0000 0.92660  0.80548  0.63396  Biso   1.000  C
  C99      1.0000 0.92660  0.63396  0.80548  Biso   1.000  C
  C100     1.0000 0.80548  0.63396  0.92660  Biso   1.000  C
  C101     1.0000 0.63396  0.92660  0.63396  Biso   1.000  C
  C102     1.0000 0.63396  0.80548  0.63396  Biso   1.000  C
  C103     1.0000 0.80548  0.63396  0.63396  Biso   1.000  C
  C104     1.0000 0.92660  0.63396  0.63396  Biso   1.000  C
  C105     1.0000 0.63396  0.92660  0.80548  Biso   1.000  C
  C106     1.0000 0.63396  0.80548  0.92660  Biso   1.000  C
  O1       1.0000 0.10544  0.92323  0.06686  Biso   1.000  O
  O2       1.0000 0.10544  0.92323  0.89445  Biso   1.000  O
  O3       1.0000 0.10544  0.75083  0.06686  Biso   1.000  O
  O4       1.0000 0.93303  0.92323  0.06686  Biso   1.000  O
  O5       1.0000 0.51466  0.33245  0.47608  Biso   1.000  O
  O6       1.0000 0.51466  0.33245  0.64848  Biso   1.000  O
  O7       1.0000 0.68706  0.33245  0.47608  Biso   1.000  O
  O8       1.0000 0.51466  0.50486  0.47608  Biso   1.000  O
  O9       1.0000 0.26526  0.08306  0.93161  Biso   1.000  O
  O10      1.0000 0.26526  0.08306  0.70090  Biso   1.000  O
  O11      1.0000 0.97019  0.55727  0.22668  Biso   1.000  O
  O12      1.0000 0.73948  0.78798  0.22668  Biso   1.000  O
  O13      1.0000 0.26526  0.78798  0.70090  Biso   1.000  O
  O14      1.0000 0.26526  0.55727  0.93161  Biso   1.000  O
  O15      1.0000 0.97019  0.08306  0.22668  Biso   1.000  O
  O16      1.0000 0.73948  0.08306  0.22668  Biso   1.000  O
  O17      1.0000 0.26526  0.55727  0.22668  Biso   1.000  O
  O18      1.0000 0.26526  0.78798  0.22668  Biso   1.000  O
  O19      1.0000 0.97019  0.08306  0.70090  Biso   1.000  O
  O20      1.0000 0.73948  0.08306  0.93161  Biso   1.000  O
  O21      1.0000 0.35483  0.17263  0.61133  Biso   1.000  O
  O22      1.0000 0.35483  0.17263  0.84204  Biso   1.000  O
  O23      1.0000 0.88062  0.46770  0.31625  Biso   1.000  O
  O24      1.0000 0.64991  0.69841  0.31625  Biso   1.000  O
  O25      1.0000 0.64991  0.17263  0.84204  Biso   1.000  O
  O26      1.0000 0.88062  0.17263  0.61133  Biso   1.000  O
  O27      1.0000 0.35483  0.46770  0.31625  Biso   1.000  O
  O28      1.0000 0.35483  0.69841  0.31625  Biso   1.000  O
  O29      1.0000 0.88062  0.17263  0.31625  Biso   1.000  O
  O30      1.0000 0.64991  0.17263  0.31625  Biso   1.000  O
  O31      1.0000 0.35483  0.46770  0.84204  Biso   1.000  O
  O32      1.0000 0.35483  0.69841  0.61133  Biso   1.000  O
  O33      1.0000 0.28399  0.10178  0.86770  Biso   1.000  O
  O34      1.0000 0.28399  0.10178  0.72735  Biso   1.000  O
  O35      1.0000 0.90628  0.58373  0.24541  Biso   1.000  O
  O36      1.0000 0.76593  0.72408  0.24541  Biso   1.000  O
  O37      1.0000 0.28399  0.72408  0.72735  Biso   1.000  O
  O38      1.0000 0.28399  0.58373  0.86770  Biso   1.000  O
  O39      1.0000 0.90628  0.10178  0.24541  Biso   1.000  O
  O40      1.0000 0.76593  0.10178  0.24541  Biso   1.000  O
  O41      1.0000 0.28399  0.58373  0.24541  Biso   1.000  O
  O42      1.0000 0.28399  0.72408  0.24541  Biso   1.000  O
  O43      1.0000 0.90628  0.10178  0.72735  Biso   1.000  O
  O44      1.0000 0.76593  0.10178  0.86770  Biso   1.000  O
  O45      1.0000 0.33611  0.15390  0.67523  Biso   1.000  O
  O46      1.0000 0.33611  0.15390  0.81558  Biso   1.000  O
  O47      1.0000 0.85416  0.53161  0.29753  Biso   1.000  O
  O48      1.0000 0.71382  0.67196  0.29753  Biso   1.000  O
  O49      1.0000 0.71382  0.15390  0.81558  Biso   1.000  O
  O50      1.0000 0.85416  0.15390  0.67523  Biso   1.000  O
  O51      1.0000 0.33611  0.53161  0.29753  Biso   1.000  O
  O52      1.0000 0.33611  0.67196  0.29753  Biso   1.000  O
  O53      1.0000 0.85416  0.15390  0.29753  Biso   1.000  O
  O54      1.0000 0.71382  0.15390  0.29753  Biso   1.000  O
  O55      1.0000 0.33611  0.53161  0.81558  Biso   1.000  O
  O56      1.0000 0.33611  0.67196  0.67523  Biso   1.000  O
  O57      1.0000 0.20056  0.01836  0.88553  Biso   1.000  O
  O58      1.0000 0.25674  0.07454  0.82935  Biso   1.000  O
  O59      1.0000 0.92412  0.74191  0.16198  Biso   1.000  O
  O60      1.0000 0.86794  0.68573  0.21816  Biso   1.000  O
  O61      1.0000 0.20056  0.74191  0.88553  Biso   1.000  O
  O62      1.0000 0.25674  0.68573  0.82935  Biso   1.000  O
  O63      1.0000 0.92412  0.01836  0.16198  Biso   1.000  O
  O64      1.0000 0.86794  0.07454  0.21816  Biso   1.000  O
  O65      1.0000 0.20056  0.74191  0.16198  Biso   1.000  O
  O66      1.0000 0.25674  0.68573  0.21816  Biso   1.000  O
  O67      1.0000 0.92412  0.01836  0.88553  Biso   1.000  O
  O68      1.0000 0.86794  0.07454  0.82935  Biso   1.000  O
  O69      1.0000 0.41954  0.23733  0.65740  Biso   1.000  O
  O70      1.0000 0.36336  0.18115  0.71358  Biso   1.000  O
  O71      1.0000 0.69598  0.51378  0.38095  Biso   1.000  O
  O72      1.0000 0.75216  0.56996  0.32477  Biso   1.000  O
  O73      1.0000 0.69598  0.23733  0.65740  Biso   1.000  O
  O74      1.0000 0.75216  0.18115  0.71358  Biso   1.000  O
  O75      1.0000 0.41954  0.51378  0.38095  Biso   1.000  O
  O76      1.0000 0.36336  0.56996  0.32477  Biso   1.000  O
  O77      1.0000 0.69598  0.23733  0.38095  Biso   1.000  O
  O78      1.0000 0.75216  0.18115  0.32477  Biso   1.000  O
  O79      1.0000 0.41954  0.51378  0.65740  Biso   1.000  O
  O80      1.0000 0.36336  0.56996  0.71358  Biso   1.000  O
  O81      1.0000 0.06234  0.88013  0.02376  Biso   1.000  O
  O82      1.0000 0.55776  0.37555  0.51918  Biso   1.000  O
  O83      1.0000 0.17737  0.99517  0.97174  Biso   1.000  O
  O84      1.0000 0.17737  0.99517  0.84570  Biso   1.000  O
  O85      1.0000 0.01032  0.70208  0.13879  Biso   1.000  O
  O86      1.0000 0.88428  0.82811  0.13879  Biso   1.000  O
  O87      1.0000 0.17737  0.82811  0.84570  Biso   1.000  O
  O88      1.0000 0.17737  0.70208  0.97174  Biso   1.000  O
  O89      1.0000 0.01032  0.99517  0.13879  Biso   1.000  O
  O90      1.0000 0.88428  0.99517  0.13879  Biso   1.000  O
  O91      1.0000 0.17737  0.70208  0.13879  Biso   1.000  O
  O92      1.0000 0.17737  0.82811  0.13879  Biso   1.000  O
  O93      1.0000 0.01032  0.99517  0.84570  Biso   1.000  O
  O94      1.0000 0.88428  0.99517  0.97174  Biso   1.000  O
  O95      1.0000 0.44272  0.26052  0.57120  Biso   1.000  O
  O96      1.0000 0.44272  0.26052  0.69723  Biso   1.000  O
  O97      1.0000 0.73581  0.42757  0.40414  Biso   1.000  O
  O98      1.0000 0.60978  0.55361  0.40414  Biso   1.000  O
  O99      1.0000 0.60978  0.26052  0.69723  Biso   1.000  O
  O100     1.0000 0.73581  0.26052  0.57120  Biso   1.000  O
  O101     1.0000 0.44272  0.42757  0.40414  Biso   1.000  O
  O102     1.0000 0.44272  0.55361  0.40414  Biso   1.000  O
  O103     1.0000 0.73581  0.26052  0.40414  Biso   1.000  O
  O104     1.0000 0.60978  0.26052  0.40414  Biso   1.000  O
  O105     1.0000 0.44272  0.42757  0.69723  Biso   1.000  O
  O106     1.0000 0.44272  0.55361  0.57120  Biso   1.000  O
