data_image0
_cell_length_a       18.2205
_cell_length_b       18.2205
_cell_length_c       18.2205
_cell_angle_alpha    60
_cell_angle_beta     60
_cell_angle_gamma    60

_symmetry_space_group_name_H-M    "P 1"
_symmetry_int_tables_number       1

loop_
  _symmetry_equiv_pos_as_xyz
  'x, y, z'

loop_
  _atom_site_label
  _atom_site_occupancy
  _atom_site_fract_x
  _atom_site_fract_y
  _atom_site_fract_z
  _atom_site_thermal_displace_type
  _atom_site_B_iso_or_equiv
  _atom_site_type_symbol
  C1       1.0000 0.29361  0.29361  0.11917  Biso   1.000  C
  C2       1.0000 0.29361  0.29361  0.29361  Biso   1.000  C
  C3       1.0000 0.11917  0.29361  0.29361  Biso   1.000  C
  C4       1.0000 0.29361  0.11917  0.29361  Biso   1.000  C
  C5       1.0000 0.70639  0.70639  0.88083  Biso   1.000  C
  C6       1.0000 0.70639  0.70639  0.70639  Biso   1.000  C
  C7       1.0000 0.70639  0.88083  0.70639  Biso   1.000  C
  C8       1.0000 0.88083  0.70639  0.70639  Biso   1.000  C
  C9       1.0000 0.45580  0.45580  0.93700  Biso   1.000  C
  C10      1.0000 0.45580  0.45580  0.15140  Biso   1.000  C
  C11      1.0000 0.93700  0.15140  0.45580  Biso   1.000  C
  C12      1.0000 0.15140  0.93700  0.45580  Biso   1.000  C
  C13      1.0000 0.45580  0.93700  0.15140  Biso   1.000  C
  C14      1.0000 0.45580  0.15140  0.93700  Biso   1.000  C
  C15      1.0000 0.93700  0.45580  0.45580  Biso   1.000  C
  C16      1.0000 0.15140  0.45580  0.45580  Biso   1.000  C
  C17      1.0000 0.45580  0.15140  0.45580  Biso   1.000  C
  C18      1.0000 0.45580  0.93700  0.45580  Biso   1.000  C
  C19      1.0000 0.93700  0.45580  0.15140  Biso   1.000  C
  C20      1.0000 0.15140  0.45580  0.93700  Biso   1.000  C
  C21      1.0000 0.54420  0.54420  0.06300  Biso   1.000  C
  C22      1.0000 0.54420  0.54420  0.84860  Biso   1.000  C
  C23      1.0000 0.84860  0.06300  0.54420  Biso   1.000  C
  C24      1.0000 0.06300  0.84860  0.54420  Biso   1.000  C
  C25      1.0000 0.06300  0.54420  0.84860  Biso   1.000  C
  C26      1.0000 0.84860  0.54420  0.06300  Biso   1.000  C
  C27      1.0000 0.54420  0.06300  0.54420  Biso   1.000  C
  C28      1.0000 0.54420  0.84860  0.54420  Biso   1.000  C
  C29      1.0000 0.84860  0.54420  0.54420  Biso   1.000  C
  C30      1.0000 0.06300  0.54420  0.54420  Biso   1.000  C
  C31      1.0000 0.54420  0.06300  0.84860  Biso   1.000  C
  C32      1.0000 0.54420  0.84860  0.06300  Biso   1.000  C
  C33      1.0000 0.47350  0.47350  0.96390  Biso   1.000  C
  C34      1.0000 0.47350  0.47350  0.08910  Biso   1.000  C
  C35      1.0000 0.96390  0.08910  0.47350  Biso   1.000  C
  C36      1.0000 0.08910  0.96390  0.47350  Biso   1.000  C
  C37      1.0000 0.47350  0.96390  0.08910  Biso   1.000  C
  C38      1.0000 0.47350  0.08910  0.96390  Biso   1.000  C
  C39      1.0000 0.96390  0.47350  0.47350  Biso   1.000  C
  C40      1.0000 0.08910  0.47350  0.47350  Biso   1.000  C
  C41      1.0000 0.47350  0.08910  0.47350  Biso   1.000  C
  C42      1.0000 0.47350  0.96390  0.47350  Biso   1.000  C
  C43      1.0000 0.96390  0.47350  0.08910  Biso   1.000  C
  C44      1.0000 0.08910  0.47350  0.96390  Biso   1.000  C
  C45      1.0000 0.52650  0.52650  0.03610  Biso   1.000  C
  C46      1.0000 0.52650  0.52650  0.91090  Biso   1.000  C
  C47      1.0000 0.91090  0.03610  0.52650  Biso   1.000  C
  C48      1.0000 0.03610  0.91090  0.52650  Biso   1.000  C
  C49      1.0000 0.03610  0.52650  0.91090  Biso   1.000  C
  C50      1.0000 0.91090  0.52650  0.03610  Biso   1.000  C
  C51      1.0000 0.52650  0.03610  0.52650  Biso   1.000  C
  C52      1.0000 0.52650  0.91090  0.52650  Biso   1.000  C
  C53      1.0000 0.91090  0.52650  0.52650  Biso   1.000  C
  C54      1.0000 0.03610  0.52650  0.52650  Biso   1.000  C
  C55      1.0000 0.52650  0.03610  0.91090  Biso   1.000  C
  C56      1.0000 0.52650  0.91090  0.03610  Biso   1.000  C
  C57      1.0000 0.38850  0.38850  0.11150  Biso   1.000  C
  C58      1.0000 0.44660  0.44660  0.05340  Biso   1.000  C
  C59      1.0000 0.11150  0.11150  0.38850  Biso   1.000  C
  C60      1.0000 0.05340  0.05340  0.44660  Biso   1.000  C
  C61      1.0000 0.38850  0.11150  0.11150  Biso   1.000  C
  C62      1.0000 0.44660  0.05340  0.05340  Biso   1.000  C
  C63      1.0000 0.11150  0.38850  0.38850  Biso   1.000  C
  C64      1.0000 0.05340  0.44660  0.44660  Biso   1.000  C
  C65      1.0000 0.38850  0.11150  0.38850  Biso   1.000  C
  C66      1.0000 0.44660  0.05340  0.44660  Biso   1.000  C
  C67      1.0000 0.11150  0.38850  0.11150  Biso   1.000  C
  C68      1.0000 0.05340  0.44660  0.05340  Biso   1.000  C
  C69      1.0000 0.61150  0.61150  0.88850  Biso   1.000  C
  C70      1.0000 0.55340  0.55340  0.94660  Biso   1.000  C
  C71      1.0000 0.88850  0.88850  0.61150  Biso   1.000  C
  C72      1.0000 0.94660  0.94660  0.55340  Biso   1.000  C
  C73      1.0000 0.88850  0.61150  0.88850  Biso   1.000  C
  C74      1.0000 0.94660  0.55340  0.94660  Biso   1.000  C
  C75      1.0000 0.61150  0.88850  0.61150  Biso   1.000  C
  C76      1.0000 0.55340  0.94660  0.55340  Biso   1.000  C
  C77      1.0000 0.88850  0.61150  0.61150  Biso   1.000  C
  C78      1.0000 0.94660  0.55340  0.55340  Biso   1.000  C
  C79      1.0000 0.61150  0.88850  0.88850  Biso   1.000  C
  C80      1.0000 0.55340  0.94660  0.94660  Biso   1.000  C
  C81      1.0000 0.25000  0.25000  0.25000  Biso   1.000  C
  C82      1.0000 0.75000  0.75000  0.75000  Biso   1.000  C
  C83      1.0000 0.36609  0.36609  0.07351  Biso   1.000  C
  C84      1.0000 0.36609  0.36609  0.19431  Biso   1.000  C
  C85      1.0000 0.07351  0.19431  0.36609  Biso   1.000  C
  C86      1.0000 0.19431  0.07351  0.36609  Biso   1.000  C
  C87      1.0000 0.36609  0.07351  0.19431  Biso   1.000  C
  C88      1.0000 0.36609  0.19431  0.07351  Biso   1.000  C
  C89      1.0000 0.07351  0.36609  0.36609  Biso   1.000  C
  C90      1.0000 0.19431  0.36609  0.36609  Biso   1.000  C
  C91      1.0000 0.36609  0.19431  0.36609  Biso   1.000  C
  C92      1.0000 0.36609  0.07351  0.36609  Biso   1.000  C
  C93      1.0000 0.07351  0.36609  0.19431  Biso   1.000  C
  C94      1.0000 0.19431  0.36609  0.07351  Biso   1.000  C
  C95      1.0000 0.63391  0.63391  0.92649  Biso   1.000  C
  C96      1.0000 0.63391  0.63391  0.80569  Biso   1.000  C
  C97      1.0000 0.80569  0.92649  0.63391  Biso   1.000  C
  C98      1.0000 0.92649  0.80569  0.63391  Biso   1.000  C
  C99      1.0000 0.92649  0.63391  0.80569  Biso   1.000  C
  C100     1.0000 0.80569  0.63391  0.92649  Biso   1.000  C
  C101     1.0000 0.63391  0.92649  0.63391  Biso   1.000  C
  C102     1.0000 0.63391  0.80569  0.63391  Biso   1.000  C
  C103     1.0000 0.80569  0.63391  0.63391  Biso   1.000  C
  C104     1.0000 0.92649  0.63391  0.63391  Biso   1.000  C
  C105     1.0000 0.63391  0.92649  0.80569  Biso   1.000  C
  C106     1.0000 0.63391  0.80569  0.92649  Biso   1.000  C
  O1       1.0000 0.89763  0.75574  0.43360  Biso   1.000  O
  O2       1.0000 0.07289  0.75575  0.25833  Biso   1.000  O
  O3       1.0000 0.89763  0.75574  0.25834  Biso   1.000  O
  O4       1.0000 0.89764  0.93101  0.25833  Biso   1.000  O
  O5       1.0000 0.49867  0.33890  0.66624  Biso   1.000  O
  O6       1.0000 0.32340  0.33890  0.84150  Biso   1.000  O
  O7       1.0000 0.49867  0.16365  0.84150  Biso   1.000  O
  O8       1.0000 0.49867  0.33891  0.84150  Biso   1.000  O
  O9       1.0000 0.04613  0.59263  0.61134  Biso   1.000  O
  O10      1.0000 0.25957  0.59263  0.39790  Biso   1.000  O
  O11      1.0000 0.74345  0.89531  0.09522  Biso   1.000  O
  O12      1.0000 0.74345  0.10875  0.09522  Biso   1.000  O
  O13      1.0000 0.74345  0.10875  0.39790  Biso   1.000  O
  O14      1.0000 0.74345  0.89531  0.61134  Biso   1.000  O
  O15      1.0000 0.04613  0.59263  0.09522  Biso   1.000  O
  O16      1.0000 0.25957  0.59263  0.09522  Biso   1.000  O
  O17      1.0000 0.25957  0.89531  0.09522  Biso   1.000  O
  O18      1.0000 0.04613  0.10875  0.09522  Biso   1.000  O
  O19      1.0000 0.74345  0.59263  0.39790  Biso   1.000  O
  O20      1.0000 0.74345  0.59263  0.61134  Biso   1.000  O
  O21      1.0000 0.35017  0.50203  0.48850  Biso   1.000  O
  O22      1.0000 0.13673  0.50203  0.70194  Biso   1.000  O
  O23      1.0000 0.65285  0.98591  0.00462  Biso   1.000  O
  O24      1.0000 0.65285  0.19935  0.00462  Biso   1.000  O
  O25      1.0000 0.65285  0.50203  0.70194  Biso   1.000  O
  O26      1.0000 0.65285  0.50203  0.48850  Biso   1.000  O
  O27      1.0000 0.35017  0.98591  0.00462  Biso   1.000  O
  O28      1.0000 0.13673  0.19935  0.00462  Biso   1.000  O
  O29      1.0000 0.13673  0.50203  0.00462  Biso   1.000  O
  O30      1.0000 0.35017  0.50203  0.00462  Biso   1.000  O
  O31      1.0000 0.65285  0.98591  0.70194  Biso   1.000  O
  O32      1.0000 0.65285  0.19935  0.48850  Biso   1.000  O
  O33      1.0000 0.11004  0.57423  0.58424  Biso   1.000  O
  O34      1.0000 0.23247  0.57423  0.46181  Biso   1.000  O
  O35      1.0000 0.72505  0.95922  0.07682  Biso   1.000  O
  O36      1.0000 0.72505  0.08165  0.07682  Biso   1.000  O
  O37      1.0000 0.72505  0.08165  0.46181  Biso   1.000  O
  O38      1.0000 0.72505  0.95922  0.58424  Biso   1.000  O
  O39      1.0000 0.11003  0.57423  0.07682  Biso   1.000  O
  O40      1.0000 0.23247  0.57423  0.07682  Biso   1.000  O
  O41      1.0000 0.23247  0.95922  0.07682  Biso   1.000  O
  O42      1.0000 0.11003  0.08165  0.07682  Biso   1.000  O
  O43      1.0000 0.72505  0.57423  0.46181  Biso   1.000  O
  O44      1.0000 0.72505  0.57423  0.58424  Biso   1.000  O
  O45      1.0000 0.28626  0.52043  0.51560  Biso   1.000  O
  O46      1.0000 0.16383  0.52043  0.63803  Biso   1.000  O
  O47      1.0000 0.67125  0.01301  0.02302  Biso   1.000  O
  O48      1.0000 0.67125  0.13544  0.02302  Biso   1.000  O
  O49      1.0000 0.67125  0.52043  0.63803  Biso   1.000  O
  O50      1.0000 0.67125  0.52043  0.51560  Biso   1.000  O
  O51      1.0000 0.28626  0.01301  0.02302  Biso   1.000  O
  O52      1.0000 0.16383  0.13544  0.02302  Biso   1.000  O
  O53      1.0000 0.16383  0.52043  0.02302  Biso   1.000  O
  O54      1.0000 0.28626  0.52043  0.02302  Biso   1.000  O
  O55      1.0000 0.67125  0.01301  0.63803  Biso   1.000  O
  O56      1.0000 0.67125  0.13544  0.51560  Biso   1.000  O
  O57      1.0000 0.08112  0.65990  0.44182  Biso   1.000  O
  O58      1.0000 0.13962  0.60139  0.50033  Biso   1.000  O
  O59      1.0000 0.80178  0.93923  0.16249  Biso   1.000  O
  O60      1.0000 0.74327  0.99774  0.10398  Biso   1.000  O
  O61      1.0000 0.80178  0.93923  0.44182  Biso   1.000  O
  O62      1.0000 0.74327  0.99774  0.50033  Biso   1.000  O
  O63      1.0000 0.08112  0.65990  0.16249  Biso   1.000  O
  O64      1.0000 0.13962  0.60139  0.10398  Biso   1.000  O
  O65      1.0000 0.08112  0.93923  0.16249  Biso   1.000  O
  O66      1.0000 0.13962  0.99774  0.10398  Biso   1.000  O
  O67      1.0000 0.80178  0.65990  0.44182  Biso   1.000  O
  O68      1.0000 0.74327  0.60139  0.50033  Biso   1.000  O
  O69      1.0000 0.31518  0.43476  0.65802  Biso   1.000  O
  O70      1.0000 0.25667  0.49327  0.59951  Biso   1.000  O
  O71      1.0000 0.59451  0.15543  0.93735  Biso   1.000  O
  O72      1.0000 0.65302  0.09692  0.99586  Biso   1.000  O
  O73      1.0000 0.59451  0.43476  0.65802  Biso   1.000  O
  O74      1.0000 0.65302  0.49327  0.59951  Biso   1.000  O
  O75      1.0000 0.31518  0.15543  0.93735  Biso   1.000  O
  O76      1.0000 0.25667  0.09692  0.99586  Biso   1.000  O
  O77      1.0000 0.31518  0.43476  0.93735  Biso   1.000  O
  O78      1.0000 0.25667  0.49327  0.99586  Biso   1.000  O
  O79      1.0000 0.59451  0.15543  0.65802  Biso   1.000  O
  O80      1.0000 0.65302  0.09692  0.59951  Biso   1.000  O
  O81      1.0000 0.94145  0.79956  0.30215  Biso   1.000  O
  O82      1.0000 0.45485  0.29510  0.79769  Biso   1.000  O
  O83      1.0000 0.99707  0.68244  0.48078  Biso   1.000  O
  O84      1.0000 0.12008  0.68244  0.35777  Biso   1.000  O
  O85      1.0000 0.82432  0.85518  0.18503  Biso   1.000  O
  O86      1.0000 0.82432  0.97819  0.18503  Biso   1.000  O
  O87      1.0000 0.82432  0.97819  0.35777  Biso   1.000  O
  O88      1.0000 0.82432  0.85518  0.48078  Biso   1.000  O
  O89      1.0000 0.99707  0.68244  0.18503  Biso   1.000  O
  O90      1.0000 0.12008  0.68244  0.18503  Biso   1.000  O
  O91      1.0000 0.12008  0.85518  0.18503  Biso   1.000  O
  O92      1.0000 0.99707  0.97819  0.18503  Biso   1.000  O
  O93      1.0000 0.82432  0.68244  0.35777  Biso   1.000  O
  O94      1.0000 0.82432  0.68244  0.48078  Biso   1.000  O
  O95      1.0000 0.39923  0.41222  0.61905  Biso   1.000  O
  O96      1.0000 0.27622  0.41222  0.74206  Biso   1.000  O
  O97      1.0000 0.57197  0.11646  0.91481  Biso   1.000  O
  O98      1.0000 0.57197  0.23947  0.91481  Biso   1.000  O
  O99      1.0000 0.57197  0.41222  0.74206  Biso   1.000  O
  O100     1.0000 0.57197  0.41222  0.61905  Biso   1.000  O
  O101     1.0000 0.39923  0.11646  0.91481  Biso   1.000  O
  O102     1.0000 0.27622  0.23947  0.91481  Biso   1.000  O
  O103     1.0000 0.27622  0.41222  0.91481  Biso   1.000  O
  O104     1.0000 0.39923  0.41222  0.91481  Biso   1.000  O
  O105     1.0000 0.57198  0.11646  0.74206  Biso   1.000  O
  O106     1.0000 0.57198  0.23947  0.61905  Biso   1.000  O
