data_image0
_cell_length_a       18.2751
_cell_length_b       18.2751
_cell_length_c       18.2751
_cell_angle_alpha    60
_cell_angle_beta     60
_cell_angle_gamma    60

_symmetry_space_group_name_H-M    "P 1"
_symmetry_int_tables_number       1

loop_
  _symmetry_equiv_pos_as_xyz
  'x, y, z'

loop_
  _atom_site_label
  _atom_site_occupancy
  _atom_site_fract_x
  _atom_site_fract_y
  _atom_site_fract_z
  _atom_site_thermal_displace_type
  _atom_site_B_iso_or_equiv
  _atom_site_type_symbol
  Zn1      1.0000 0.29350  0.29349  0.11952  Biso   1.000  Zn
  Zn2      1.0000 0.29350  0.29349  0.29349  Biso   1.000  Zn
  Zn3      1.0000 0.11953  0.29349  0.29349  Biso   1.000  Zn
  Zn4      1.0000 0.29350  0.11952  0.29349  Biso   1.000  Zn
  Zn5      1.0000 0.70650  0.70651  0.88048  Biso   1.000  Zn
  Zn6      1.0000 0.70650  0.70651  0.70651  Biso   1.000  Zn
  Zn7      1.0000 0.70650  0.88048  0.70651  Biso   1.000  Zn
  Zn8      1.0000 0.88047  0.70651  0.70651  Biso   1.000  Zn
  H1       1.0000 0.45530  0.45530  0.93570  Biso   1.000  H
  H2       1.0000 0.45530  0.45530  0.15370  Biso   1.000  H
  H3       1.0000 0.93570  0.15370  0.45530  Biso   1.000  H
  H4       1.0000 0.15370  0.93570  0.45530  Biso   1.000  H
  H5       1.0000 0.45530  0.93570  0.15370  Biso   1.000  H
  H6       1.0000 0.45530  0.15370  0.93570  Biso   1.000  H
  H7       1.0000 0.93570  0.45530  0.45530  Biso   1.000  H
  H8       1.0000 0.15370  0.45530  0.45530  Biso   1.000  H
  H9       1.0000 0.45530  0.15370  0.45530  Biso   1.000  H
  H10      1.0000 0.45530  0.93570  0.45530  Biso   1.000  H
  H11      1.0000 0.93570  0.45530  0.15370  Biso   1.000  H
  H12      1.0000 0.15370  0.45530  0.93570  Biso   1.000  H
  H13      1.0000 0.54470  0.54470  0.06430  Biso   1.000  H
  H14      1.0000 0.54470  0.54470  0.84630  Biso   1.000  H
  H15      1.0000 0.84630  0.06430  0.54470  Biso   1.000  H
  H16      1.0000 0.06430  0.84630  0.54470  Biso   1.000  H
  H17      1.0000 0.06430  0.54470  0.84630  Biso   1.000  H
  H18      1.0000 0.84630  0.54470  0.06430  Biso   1.000  H
  H19      1.0000 0.54470  0.06430  0.54470  Biso   1.000  H
  H20      1.0000 0.54470  0.84630  0.54470  Biso   1.000  H
  H21      1.0000 0.84630  0.54470  0.54470  Biso   1.000  H
  H22      1.0000 0.06430  0.54470  0.54470  Biso   1.000  H
  H23      1.0000 0.54470  0.06430  0.84630  Biso   1.000  H
  H24      1.0000 0.54470  0.84630  0.06430  Biso   1.000  H
  C1       1.0000 0.47331  0.47331  0.96231  Biso   1.000  C
  C2       1.0000 0.47331  0.47331  0.09107  Biso   1.000  C
  C3       1.0000 0.96231  0.09107  0.47331  Biso   1.000  C
  C4       1.0000 0.09107  0.96231  0.47331  Biso   1.000  C
  C5       1.0000 0.47331  0.96231  0.09107  Biso   1.000  C
  C6       1.0000 0.47331  0.09107  0.96231  Biso   1.000  C
  C7       1.0000 0.96231  0.47331  0.47331  Biso   1.000  C
  C8       1.0000 0.09107  0.47331  0.47331  Biso   1.000  C
  C9       1.0000 0.47331  0.09107  0.47331  Biso   1.000  C
  C10      1.0000 0.47331  0.96231  0.47331  Biso   1.000  C
  C11      1.0000 0.96231  0.47331  0.09107  Biso   1.000  C
  C12      1.0000 0.09107  0.47331  0.96231  Biso   1.000  C
  C13      1.0000 0.52669  0.52669  0.03769  Biso   1.000  C
  C14      1.0000 0.52669  0.52669  0.90893  Biso   1.000  C
  C15      1.0000 0.90893  0.03769  0.52669  Biso   1.000  C
  C16      1.0000 0.03769  0.90893  0.52669  Biso   1.000  C
  C17      1.0000 0.03769  0.52669  0.90893  Biso   1.000  C
  C18      1.0000 0.90893  0.52669  0.03769  Biso   1.000  C
  C19      1.0000 0.52669  0.03769  0.52669  Biso   1.000  C
  C20      1.0000 0.52669  0.90893  0.52669  Biso   1.000  C
  C21      1.0000 0.90893  0.52669  0.52669  Biso   1.000  C
  C22      1.0000 0.03769  0.52669  0.52669  Biso   1.000  C
  C23      1.0000 0.52669  0.03769  0.90893  Biso   1.000  C
  C24      1.0000 0.52669  0.90893  0.03769  Biso   1.000  C
  C25      1.0000 0.38853  0.38853  0.11147  Biso   1.000  C
  C26      1.0000 0.44625  0.44625  0.05375  Biso   1.000  C
  C27      1.0000 0.11147  0.11147  0.38853  Biso   1.000  C
  C28      1.0000 0.05375  0.05375  0.44625  Biso   1.000  C
  C29      1.0000 0.38853  0.11147  0.11147  Biso   1.000  C
  C30      1.0000 0.44625  0.05375  0.05375  Biso   1.000  C
  C31      1.0000 0.11147  0.38853  0.38853  Biso   1.000  C
  C32      1.0000 0.05375  0.44625  0.44625  Biso   1.000  C
  C33      1.0000 0.38853  0.11147  0.38853  Biso   1.000  C
  C34      1.0000 0.44625  0.05375  0.44625  Biso   1.000  C
  C35      1.0000 0.11147  0.38853  0.11147  Biso   1.000  C
  C36      1.0000 0.05375  0.44625  0.05375  Biso   1.000  C
  C37      1.0000 0.61147  0.61147  0.88853  Biso   1.000  C
  C38      1.0000 0.55375  0.55375  0.94625  Biso   1.000  C
  C39      1.0000 0.88853  0.88853  0.61147  Biso   1.000  C
  C40      1.0000 0.94625  0.94625  0.55375  Biso   1.000  C
  C41      1.0000 0.88853  0.61147  0.88853  Biso   1.000  C
  C42      1.0000 0.94625  0.55375  0.94625  Biso   1.000  C
  C43      1.0000 0.61147  0.88853  0.61147  Biso   1.000  C
  C44      1.0000 0.55375  0.94625  0.55375  Biso   1.000  C
  C45      1.0000 0.88853  0.61147  0.61147  Biso   1.000  C
  C46      1.0000 0.94625  0.55375  0.55375  Biso   1.000  C
  C47      1.0000 0.61147  0.88853  0.88853  Biso   1.000  C
  C48      1.0000 0.55375  0.94625  0.94625  Biso   1.000  C
  O1       1.0000 0.25000  0.25000  0.25000  Biso   1.000  O
  O2       1.0000 0.75000  0.75000  0.75000  Biso   1.000  O
  O3       1.0000 0.36609  0.36609  0.07299  Biso   1.000  O
  O4       1.0000 0.36609  0.36609  0.19483  Biso   1.000  O
  O5       1.0000 0.07299  0.19483  0.36609  Biso   1.000  O
  O6       1.0000 0.19483  0.07299  0.36609  Biso   1.000  O
  O7       1.0000 0.36609  0.07299  0.19483  Biso   1.000  O
  O8       1.0000 0.36609  0.19483  0.07299  Biso   1.000  O
  O9       1.0000 0.07299  0.36609  0.36609  Biso   1.000  O
  O10      1.0000 0.19483  0.36609  0.36609  Biso   1.000  O
  O11      1.0000 0.36609  0.19483  0.36609  Biso   1.000  O
  O12      1.0000 0.36609  0.07299  0.36609  Biso   1.000  O
  O13      1.0000 0.07299  0.36609  0.19483  Biso   1.000  O
  O14      1.0000 0.19483  0.36609  0.07299  Biso   1.000  O
  O15      1.0000 0.63391  0.63391  0.92701  Biso   1.000  O
  O16      1.0000 0.63391  0.63391  0.80517  Biso   1.000  O
  O17      1.0000 0.80517  0.92701  0.63391  Biso   1.000  O
  O18      1.0000 0.92701  0.80517  0.63391  Biso   1.000  O
  O19      1.0000 0.92701  0.63391  0.80517  Biso   1.000  O
  O20      1.0000 0.80517  0.63391  0.92701  Biso   1.000  O
  O21      1.0000 0.63391  0.92701  0.63391  Biso   1.000  O
  O22      1.0000 0.63391  0.80517  0.63391  Biso   1.000  O
  O23      1.0000 0.80517  0.63391  0.63391  Biso   1.000  O
  O24      1.0000 0.92701  0.63391  0.63391  Biso   1.000  O
  O25      1.0000 0.63391  0.92701  0.80517  Biso   1.000  O
  O26      1.0000 0.63391  0.80517  0.92701  Biso   1.000  O
  Zn9      1.0000 0.59261  0.07981  0.72033  Biso   1.000  Zn
  Zn10     1.0000 0.59261  0.25316  0.72033  Biso   1.000  Zn
  Zn11     1.0000 0.41926  0.25316  0.72033  Biso   1.000  Zn
  Zn12     1.0000 0.59261  0.25316  0.54698  Biso   1.000  Zn
  Zn13     1.0000 0.00724  0.66605  0.13323  Biso   1.000  Zn
  Zn14     1.0000 0.00724  0.83940  0.13323  Biso   1.000  Zn
  Zn15     1.0000 0.18059  0.66605  0.13323  Biso   1.000  Zn
  Zn16     1.0000 0.00724  0.66605  0.30658  Biso   1.000  Zn
  H25      1.0000 0.46180  0.89575  0.87777  Biso   1.000  H
  H26      1.0000 0.75005  0.41059  0.58952  Biso   1.000  H
  H27      1.0000 0.23521  0.12235  0.87777  Biso   1.000  H
  H28      1.0000 0.75005  0.41059  0.36293  Biso   1.000  H
  H29      1.0000 0.23521  0.41059  0.58952  Biso   1.000  H
  H30      1.0000 0.75005  0.12235  0.87777  Biso   1.000  H
  H31      1.0000 0.46180  0.41059  0.36293  Biso   1.000  H
  H32      1.0000 0.75005  0.89575  0.87777  Biso   1.000  H
  H33      1.0000 0.75005  0.12235  0.36293  Biso   1.000  H
  H34      1.0000 0.46180  0.41059  0.87777  Biso   1.000  H
  H35      1.0000 0.75005  0.89575  0.58952  Biso   1.000  H
  H36      1.0000 0.23521  0.41059  0.87777  Biso   1.000  H
  H37      1.0000 0.13805  0.50862  0.97579  Biso   1.000  H
  H38      1.0000 0.84980  0.02346  0.26404  Biso   1.000  H
  H39      1.0000 0.36465  0.50862  0.97579  Biso   1.000  H
  H40      1.0000 0.84980  0.79686  0.49064  Biso   1.000  H
  H41      1.0000 0.36465  0.50862  0.26404  Biso   1.000  H
  H42      1.0000 0.84980  0.02346  0.97579  Biso   1.000  H
  H43      1.0000 0.13805  0.50862  0.49064  Biso   1.000  H
  H44      1.0000 0.84980  0.79686  0.97579  Biso   1.000  H
  H45      1.0000 0.84980  0.50862  0.49064  Biso   1.000  H
  H46      1.0000 0.13805  0.02346  0.97579  Biso   1.000  H
  H47      1.0000 0.84980  0.50862  0.26404  Biso   1.000  H
  H48      1.0000 0.36465  0.79686  0.97579  Biso   1.000  H
  C49      1.0000 0.39134  0.92137  0.90019  Biso   1.000  C
  C50      1.0000 0.77247  0.43301  0.51906  Biso   1.000  C
  C51      1.0000 0.26083  0.05188  0.90019  Biso   1.000  C
  C52      1.0000 0.77247  0.43301  0.38855  Biso   1.000  C
  C53      1.0000 0.26083  0.43301  0.51906  Biso   1.000  C
  C54      1.0000 0.77247  0.05188  0.90019  Biso   1.000  C
  C55      1.0000 0.39134  0.43301  0.38855  Biso   1.000  C
  C56      1.0000 0.77247  0.92137  0.90019  Biso   1.000  C
  C57      1.0000 0.77247  0.05188  0.38855  Biso   1.000  C
  C58      1.0000 0.39134  0.43301  0.90019  Biso   1.000  C
  C59      1.0000 0.77247  0.92137  0.51906  Biso   1.000  C
  C60      1.0000 0.26083  0.43301  0.90019  Biso   1.000  C
  C61      1.0000 0.20851  0.48620  0.95337  Biso   1.000  C
  C62      1.0000 0.82738  0.99784  0.33450  Biso   1.000  C
  C63      1.0000 0.33902  0.48620  0.95337  Biso   1.000  C
  C64      1.0000 0.82738  0.86733  0.46501  Biso   1.000  C
  C65      1.0000 0.33902  0.48620  0.33450  Biso   1.000  C
  C66      1.0000 0.82738  0.99784  0.95337  Biso   1.000  C
  C67      1.0000 0.20851  0.48620  0.46501  Biso   1.000  C
  C68      1.0000 0.82738  0.86733  0.95337  Biso   1.000  C
  C69      1.0000 0.82738  0.48620  0.46501  Biso   1.000  C
  C70      1.0000 0.20851  0.99784  0.95337  Biso   1.000  C
  C71      1.0000 0.82738  0.48620  0.33450  Biso   1.000  C
  C72      1.0000 0.33902  0.86733  0.95337  Biso   1.000  C
  C73      1.0000 0.40986  0.07040  0.81642  Biso   1.000  C
  C74      1.0000 0.35331  0.01385  0.87297  Biso   1.000  C
  C75      1.0000 0.68870  0.34924  0.53758  Biso   1.000  C
  C76      1.0000 0.74525  0.40579  0.48103  Biso   1.000  C
  C77      1.0000 0.40986  0.34924  0.53758  Biso   1.000  C
  C78      1.0000 0.35331  0.40579  0.48103  Biso   1.000  C
  C79      1.0000 0.68870  0.07040  0.81642  Biso   1.000  C
  C80      1.0000 0.74525  0.01385  0.87297  Biso   1.000  C
  C81      1.0000 0.68870  0.07040  0.53758  Biso   1.000  C
  C82      1.0000 0.74525  0.01385  0.48103  Biso   1.000  C
  C83      1.0000 0.40986  0.34924  0.81642  Biso   1.000  C
  C84      1.0000 0.35331  0.40579  0.87297  Biso   1.000  C
  C85      1.0000 0.18999  0.56997  0.03714  Biso   1.000  C
  C86      1.0000 0.24654  0.51342  0.98060  Biso   1.000  C
  C87      1.0000 0.91115  0.84881  0.31599  Biso   1.000  C
  C88      1.0000 0.85460  0.90536  0.37253  Biso   1.000  C
  C89      1.0000 0.18999  0.56997  0.31599  Biso   1.000  C
  C90      1.0000 0.24654  0.51342  0.37253  Biso   1.000  C
  C91      1.0000 0.91115  0.84881  0.03714  Biso   1.000  C
  C92      1.0000 0.85460  0.90536  0.98060  Biso   1.000  C
  C93      1.0000 0.91115  0.56997  0.31599  Biso   1.000  C
  C94      1.0000 0.85460  0.51342  0.37253  Biso   1.000  C
  C95      1.0000 0.18999  0.84881  0.03714  Biso   1.000  C
  C96      1.0000 0.24654  0.90536  0.98060  Biso   1.000  C
  O27      1.0000 0.54928  0.20982  0.67700  Biso   1.000  O
  O28      1.0000 0.05057  0.70939  0.17656  Biso   1.000  O
  O29      1.0000 0.49453  0.03297  0.79280  Biso   1.000  O
  O30      1.0000 0.66508  0.32562  0.62225  Biso   1.000  O
  O31      1.0000 0.37242  0.15507  0.79280  Biso   1.000  O
  O32      1.0000 0.66508  0.32562  0.50014  Biso   1.000  O
  O33      1.0000 0.37242  0.32562  0.62225  Biso   1.000  O
  O34      1.0000 0.66508  0.15507  0.79280  Biso   1.000  O
  O35      1.0000 0.49453  0.32562  0.50014  Biso   1.000  O
  O36      1.0000 0.66508  0.03297  0.79280  Biso   1.000  O
  O37      1.0000 0.66508  0.15507  0.50014  Biso   1.000  O
  O38      1.0000 0.49453  0.32562  0.79280  Biso   1.000  O
  O39      1.0000 0.66508  0.03297  0.62225  Biso   1.000  O
  O40      1.0000 0.37242  0.32562  0.79280  Biso   1.000  O
  O41      1.0000 0.10532  0.59359  0.06076  Biso   1.000  O
  O42      1.0000 0.93477  0.88624  0.23131  Biso   1.000  O
  O43      1.0000 0.22743  0.59359  0.06076  Biso   1.000  O
  O44      1.0000 0.93477  0.76414  0.35342  Biso   1.000  O
  O45      1.0000 0.22743  0.59359  0.23131  Biso   1.000  O
  O46      1.0000 0.93477  0.88624  0.06076  Biso   1.000  O
  O47      1.0000 0.10532  0.59359  0.35342  Biso   1.000  O
  O48      1.0000 0.93477  0.76414  0.06076  Biso   1.000  O
  O49      1.0000 0.93477  0.59359  0.35342  Biso   1.000  O
  O50      1.0000 0.10532  0.88624  0.06076  Biso   1.000  O
  O51      1.0000 0.93477  0.59359  0.23131  Biso   1.000  O
  O52      1.0000 0.22743  0.76414  0.06076  Biso   1.000  O
