data_image0
_cell_length_a       18.2507
_cell_length_b       18.2507
_cell_length_c       18.2507
_cell_angle_alpha    60
_cell_angle_beta     60
_cell_angle_gamma    60

_symmetry_space_group_name_H-M    "P 1"
_symmetry_int_tables_number       1

loop_
  _symmetry_equiv_pos_as_xyz
  'x, y, z'

loop_
  _atom_site_label
  _atom_site_occupancy
  _atom_site_fract_x
  _atom_site_fract_y
  _atom_site_fract_z
  _atom_site_thermal_displace_type
  _atom_site_B_iso_or_equiv
  _atom_site_type_symbol
  Zn1      1.0000 0.29354  0.29353  0.11940  Biso   1.000  Zn
  Zn2      1.0000 0.29354  0.29353  0.29353  Biso   1.000  Zn
  Zn3      1.0000 0.11941  0.29353  0.29353  Biso   1.000  Zn
  Zn4      1.0000 0.29354  0.11940  0.29353  Biso   1.000  Zn
  Zn5      1.0000 0.70646  0.70647  0.88060  Biso   1.000  Zn
  Zn6      1.0000 0.70646  0.70647  0.70647  Biso   1.000  Zn
  Zn7      1.0000 0.70646  0.88060  0.70647  Biso   1.000  Zn
  Zn8      1.0000 0.88059  0.70647  0.70647  Biso   1.000  Zn
  H1       1.0000 0.45580  0.45580  0.93620  Biso   1.000  H
  H2       1.0000 0.45580  0.45580  0.15220  Biso   1.000  H
  H3       1.0000 0.93620  0.15220  0.45580  Biso   1.000  H
  H4       1.0000 0.15220  0.93620  0.45580  Biso   1.000  H
  H5       1.0000 0.45580  0.93620  0.15220  Biso   1.000  H
  H6       1.0000 0.45580  0.15220  0.93620  Biso   1.000  H
  H7       1.0000 0.93620  0.45580  0.45580  Biso   1.000  H
  H8       1.0000 0.15220  0.45580  0.45580  Biso   1.000  H
  H9       1.0000 0.45580  0.15220  0.45580  Biso   1.000  H
  H10      1.0000 0.45580  0.93620  0.45580  Biso   1.000  H
  H11      1.0000 0.93620  0.45580  0.15220  Biso   1.000  H
  H12      1.0000 0.15220  0.45580  0.93620  Biso   1.000  H
  H13      1.0000 0.54420  0.54420  0.06380  Biso   1.000  H
  H14      1.0000 0.54420  0.54420  0.84780  Biso   1.000  H
  H15      1.0000 0.84780  0.06380  0.54420  Biso   1.000  H
  H16      1.0000 0.06380  0.84780  0.54420  Biso   1.000  H
  H17      1.0000 0.06380  0.54420  0.84780  Biso   1.000  H
  H18      1.0000 0.84780  0.54420  0.06380  Biso   1.000  H
  H19      1.0000 0.54420  0.06380  0.54420  Biso   1.000  H
  H20      1.0000 0.54420  0.84780  0.54420  Biso   1.000  H
  H21      1.0000 0.84780  0.54420  0.54420  Biso   1.000  H
  H22      1.0000 0.06380  0.54420  0.54420  Biso   1.000  H
  H23      1.0000 0.54420  0.06380  0.84780  Biso   1.000  H
  H24      1.0000 0.54420  0.84780  0.06380  Biso   1.000  H
  C1       1.0000 0.47349  0.47349  0.96297  Biso   1.000  C
  C2       1.0000 0.47349  0.47349  0.09005  Biso   1.000  C
  C3       1.0000 0.96297  0.09005  0.47349  Biso   1.000  C
  C4       1.0000 0.09005  0.96297  0.47349  Biso   1.000  C
  C5       1.0000 0.47349  0.96297  0.09005  Biso   1.000  C
  C6       1.0000 0.47349  0.09005  0.96297  Biso   1.000  C
  C7       1.0000 0.96297  0.47349  0.47349  Biso   1.000  C
  C8       1.0000 0.09005  0.47349  0.47349  Biso   1.000  C
  C9       1.0000 0.47349  0.09005  0.47349  Biso   1.000  C
  C10      1.0000 0.47349  0.96297  0.47349  Biso   1.000  C
  C11      1.0000 0.96297  0.47349  0.09005  Biso   1.000  C
  C12      1.0000 0.09005  0.47349  0.96297  Biso   1.000  C
  C13      1.0000 0.52651  0.52651  0.03703  Biso   1.000  C
  C14      1.0000 0.52651  0.52651  0.90995  Biso   1.000  C
  C15      1.0000 0.90995  0.03703  0.52651  Biso   1.000  C
  C16      1.0000 0.03703  0.90995  0.52651  Biso   1.000  C
  C17      1.0000 0.03703  0.52651  0.90995  Biso   1.000  C
  C18      1.0000 0.90995  0.52651  0.03703  Biso   1.000  C
  C19      1.0000 0.52651  0.03703  0.52651  Biso   1.000  C
  C20      1.0000 0.52651  0.90995  0.52651  Biso   1.000  C
  C21      1.0000 0.90995  0.52651  0.52651  Biso   1.000  C
  C22      1.0000 0.03703  0.52651  0.52651  Biso   1.000  C
  C23      1.0000 0.52651  0.03703  0.90995  Biso   1.000  C
  C24      1.0000 0.52651  0.90995  0.03703  Biso   1.000  C
  C25      1.0000 0.38859  0.38859  0.11141  Biso   1.000  C
  C26      1.0000 0.44630  0.44630  0.05370  Biso   1.000  C
  C27      1.0000 0.11141  0.11141  0.38859  Biso   1.000  C
  C28      1.0000 0.05370  0.05370  0.44630  Biso   1.000  C
  C29      1.0000 0.38859  0.11141  0.11141  Biso   1.000  C
  C30      1.0000 0.44630  0.05370  0.05370  Biso   1.000  C
  C31      1.0000 0.11141  0.38859  0.38859  Biso   1.000  C
  C32      1.0000 0.05370  0.44630  0.44630  Biso   1.000  C
  C33      1.0000 0.38859  0.11141  0.38859  Biso   1.000  C
  C34      1.0000 0.44630  0.05370  0.44630  Biso   1.000  C
  C35      1.0000 0.11141  0.38859  0.11141  Biso   1.000  C
  C36      1.0000 0.05370  0.44630  0.05370  Biso   1.000  C
  C37      1.0000 0.61141  0.61141  0.88859  Biso   1.000  C
  C38      1.0000 0.55370  0.55370  0.94630  Biso   1.000  C
  C39      1.0000 0.88859  0.88859  0.61141  Biso   1.000  C
  C40      1.0000 0.94630  0.94630  0.55370  Biso   1.000  C
  C41      1.0000 0.88859  0.61141  0.88859  Biso   1.000  C
  C42      1.0000 0.94630  0.55370  0.94630  Biso   1.000  C
  C43      1.0000 0.61141  0.88859  0.61141  Biso   1.000  C
  C44      1.0000 0.55370  0.94630  0.55370  Biso   1.000  C
  C45      1.0000 0.88859  0.61141  0.61141  Biso   1.000  C
  C46      1.0000 0.94630  0.55370  0.55370  Biso   1.000  C
  C47      1.0000 0.61141  0.88859  0.88859  Biso   1.000  C
  C48      1.0000 0.55370  0.94630  0.94630  Biso   1.000  C
  O1       1.0000 0.25000  0.25000  0.25000  Biso   1.000  O
  O2       1.0000 0.75000  0.75000  0.75000  Biso   1.000  O
  O3       1.0000 0.36605  0.36605  0.07321  Biso   1.000  O
  O4       1.0000 0.36605  0.36605  0.19469  Biso   1.000  O
  O5       1.0000 0.07321  0.19469  0.36605  Biso   1.000  O
  O6       1.0000 0.19469  0.07321  0.36605  Biso   1.000  O
  O7       1.0000 0.36605  0.07321  0.19469  Biso   1.000  O
  O8       1.0000 0.36605  0.19469  0.07321  Biso   1.000  O
  O9       1.0000 0.07321  0.36605  0.36605  Biso   1.000  O
  O10      1.0000 0.19469  0.36605  0.36605  Biso   1.000  O
  O11      1.0000 0.36605  0.19469  0.36605  Biso   1.000  O
  O12      1.0000 0.36605  0.07321  0.36605  Biso   1.000  O
  O13      1.0000 0.07321  0.36605  0.19469  Biso   1.000  O
  O14      1.0000 0.19469  0.36605  0.07321  Biso   1.000  O
  O15      1.0000 0.63395  0.63395  0.92679  Biso   1.000  O
  O16      1.0000 0.63395  0.63395  0.80531  Biso   1.000  O
  O17      1.0000 0.80531  0.92679  0.63395  Biso   1.000  O
  O18      1.0000 0.92679  0.80531  0.63395  Biso   1.000  O
  O19      1.0000 0.92679  0.63395  0.80531  Biso   1.000  O
  O20      1.0000 0.80531  0.63395  0.92679  Biso   1.000  O
  O21      1.0000 0.63395  0.92679  0.63395  Biso   1.000  O
  O22      1.0000 0.63395  0.80531  0.63395  Biso   1.000  O
  O23      1.0000 0.80531  0.63395  0.63395  Biso   1.000  O
  O24      1.0000 0.92679  0.63395  0.63395  Biso   1.000  O
  O25      1.0000 0.63395  0.92679  0.80531  Biso   1.000  O
  O26      1.0000 0.63395  0.80531  0.92679  Biso   1.000  O
  Zn9      1.0000 0.10525  0.92159  0.06674  Biso   1.000  Zn
  Zn10     1.0000 0.10525  0.92159  0.89464  Biso   1.000  Zn
  Zn11     1.0000 0.10525  0.74949  0.06674  Biso   1.000  Zn
  Zn12     1.0000 0.93315  0.92159  0.06674  Biso   1.000  Zn
  Zn13     1.0000 0.51374  0.33007  0.47523  Biso   1.000  Zn
  Zn14     1.0000 0.51374  0.33007  0.64732  Biso   1.000  Zn
  Zn15     1.0000 0.68584  0.33007  0.47523  Biso   1.000  Zn
  Zn16     1.0000 0.51374  0.50217  0.47523  Biso   1.000  Zn
  H25      1.0000 0.26479  0.08112  0.93173  Biso   1.000  H
  H26      1.0000 0.26479  0.08112  0.69965  Biso   1.000  H
  H27      1.0000 0.97024  0.55449  0.22628  Biso   1.000  H
  H28      1.0000 0.73816  0.78658  0.22628  Biso   1.000  H
  H29      1.0000 0.26479  0.78658  0.69965  Biso   1.000  H
  H30      1.0000 0.26479  0.55449  0.93173  Biso   1.000  H
  H31      1.0000 0.97024  0.08112  0.22628  Biso   1.000  H
  H32      1.0000 0.73816  0.08112  0.22628  Biso   1.000  H
  H33      1.0000 0.26479  0.55449  0.22628  Biso   1.000  H
  H34      1.0000 0.26479  0.78658  0.22628  Biso   1.000  H
  H35      1.0000 0.97024  0.08112  0.69965  Biso   1.000  H
  H36      1.0000 0.73816  0.08112  0.93173  Biso   1.000  H
  H37      1.0000 0.35420  0.17054  0.61023  Biso   1.000  H
  H38      1.0000 0.35420  0.17054  0.84232  Biso   1.000  H
  H39      1.0000 0.88083  0.46508  0.31569  Biso   1.000  H
  H40      1.0000 0.64875  0.69717  0.31569  Biso   1.000  H
  H41      1.0000 0.64875  0.17054  0.84232  Biso   1.000  H
  H42      1.0000 0.88083  0.17054  0.61023  Biso   1.000  H
  H43      1.0000 0.35420  0.46508  0.31569  Biso   1.000  H
  H44      1.0000 0.35420  0.69717  0.31569  Biso   1.000  H
  H45      1.0000 0.88083  0.17054  0.31569  Biso   1.000  H
  H46      1.0000 0.64875  0.17054  0.31569  Biso   1.000  H
  H47      1.0000 0.35420  0.46508  0.84232  Biso   1.000  H
  H48      1.0000 0.35420  0.69717  0.61023  Biso   1.000  H
  C49      1.0000 0.28348  0.09982  0.86794  Biso   1.000  C
  C50      1.0000 0.28348  0.09982  0.72605  Biso   1.000  C
  C51      1.0000 0.90645  0.58090  0.24497  Biso   1.000  C
  C52      1.0000 0.76457  0.72278  0.24497  Biso   1.000  C
  C53      1.0000 0.28348  0.72278  0.72605  Biso   1.000  C
  C54      1.0000 0.28348  0.58090  0.86794  Biso   1.000  C
  C55      1.0000 0.90645  0.09982  0.24497  Biso   1.000  C
  C56      1.0000 0.76457  0.09982  0.24497  Biso   1.000  C
  C57      1.0000 0.28348  0.58090  0.24497  Biso   1.000  C
  C58      1.0000 0.28348  0.72278  0.24497  Biso   1.000  C
  C59      1.0000 0.90645  0.09982  0.72605  Biso   1.000  C
  C60      1.0000 0.76457  0.09982  0.86794  Biso   1.000  C
  C61      1.0000 0.33551  0.15184  0.67403  Biso   1.000  C
  C62      1.0000 0.33551  0.15184  0.81591  Biso   1.000  C
  C63      1.0000 0.85442  0.52888  0.29699  Biso   1.000  C
  C64      1.0000 0.71254  0.67076  0.29699  Biso   1.000  C
  C65      1.0000 0.71254  0.15184  0.81591  Biso   1.000  C
  C66      1.0000 0.85442  0.15184  0.67403  Biso   1.000  C
  C67      1.0000 0.33551  0.52888  0.29699  Biso   1.000  C
  C68      1.0000 0.33551  0.67076  0.29699  Biso   1.000  C
  C69      1.0000 0.85442  0.15184  0.29699  Biso   1.000  C
  C70      1.0000 0.71254  0.15184  0.29699  Biso   1.000  C
  C71      1.0000 0.33551  0.52888  0.81591  Biso   1.000  C
  C72      1.0000 0.33551  0.67076  0.67403  Biso   1.000  C
  C73      1.0000 0.20020  0.01654  0.88574  Biso   1.000  C
  C74      1.0000 0.25628  0.07262  0.82966  Biso   1.000  C
  C75      1.0000 0.92425  0.74059  0.16169  Biso   1.000  C
  C76      1.0000 0.86817  0.68451  0.21777  Biso   1.000  C
  C77      1.0000 0.20020  0.74059  0.88574  Biso   1.000  C
  C78      1.0000 0.25628  0.68451  0.82966  Biso   1.000  C
  C79      1.0000 0.92425  0.01654  0.16169  Biso   1.000  C
  C80      1.0000 0.86817  0.07262  0.21777  Biso   1.000  C
  C81      1.0000 0.20020  0.74059  0.16169  Biso   1.000  C
  C82      1.0000 0.25628  0.68451  0.21777  Biso   1.000  C
  C83      1.0000 0.92425  0.01654  0.88574  Biso   1.000  C
  C84      1.0000 0.86817  0.07262  0.82966  Biso   1.000  C
  C85      1.0000 0.41879  0.23512  0.65623  Biso   1.000  C
  C86      1.0000 0.36271  0.17904  0.71231  Biso   1.000  C
  C87      1.0000 0.69474  0.51107  0.38027  Biso   1.000  C
  C88      1.0000 0.75082  0.56715  0.32419  Biso   1.000  C
  C89      1.0000 0.69474  0.23512  0.65623  Biso   1.000  C
  C90      1.0000 0.75082  0.17904  0.71231  Biso   1.000  C
  C91      1.0000 0.41879  0.51107  0.38027  Biso   1.000  C
  C92      1.0000 0.36271  0.56715  0.32419  Biso   1.000  C
  C93      1.0000 0.69474  0.23512  0.38027  Biso   1.000  C
  C94      1.0000 0.75082  0.17904  0.32419  Biso   1.000  C
  C95      1.0000 0.41879  0.51107  0.65623  Biso   1.000  C
  C96      1.0000 0.36271  0.56715  0.71231  Biso   1.000  C
  O27      1.0000 0.06223  0.87856  0.02371  Biso   1.000  O
  O28      1.0000 0.55676  0.37310  0.51825  Biso   1.000  O
  O29      1.0000 0.17706  0.99339  0.97179  Biso   1.000  O
  O30      1.0000 0.17706  0.99339  0.84598  Biso   1.000  O
  O31      1.0000 0.01030  0.70083  0.13855  Biso   1.000  O
  O32      1.0000 0.88449  0.82664  0.13855  Biso   1.000  O
  O33      1.0000 0.17706  0.82664  0.84598  Biso   1.000  O
  O34      1.0000 0.17706  0.70083  0.97179  Biso   1.000  O
  O35      1.0000 0.01030  0.99339  0.13855  Biso   1.000  O
  O36      1.0000 0.88449  0.99339  0.13855  Biso   1.000  O
  O37      1.0000 0.17706  0.70083  0.13855  Biso   1.000  O
  O38      1.0000 0.17706  0.82664  0.13855  Biso   1.000  O
  O39      1.0000 0.01030  0.99339  0.84598  Biso   1.000  O
  O40      1.0000 0.88449  0.99339  0.97179  Biso   1.000  O
  O41      1.0000 0.44193  0.25827  0.57018  Biso   1.000  O
  O42      1.0000 0.44193  0.25827  0.69599  Biso   1.000  O
  O43      1.0000 0.73450  0.42502  0.40342  Biso   1.000  O
  O44      1.0000 0.60869  0.55083  0.40342  Biso   1.000  O
  O45      1.0000 0.60869  0.25827  0.69599  Biso   1.000  O
  O46      1.0000 0.73450  0.25827  0.57018  Biso   1.000  O
  O47      1.0000 0.44193  0.42502  0.40342  Biso   1.000  O
  O48      1.0000 0.44193  0.55083  0.40342  Biso   1.000  O
  O49      1.0000 0.73450  0.25827  0.40342  Biso   1.000  O
  O50      1.0000 0.60869  0.25827  0.40342  Biso   1.000  O
  O51      1.0000 0.44193  0.42502  0.69599  Biso   1.000  O
  O52      1.0000 0.44193  0.55083  0.57018  Biso   1.000  O
