data_image0
_cell_length_a       18.2344
_cell_length_b       18.2344
_cell_length_c       18.2344
_cell_angle_alpha    60
_cell_angle_beta     60
_cell_angle_gamma    60

_symmetry_space_group_name_H-M    "P 1"
_symmetry_int_tables_number       1

loop_
  _symmetry_equiv_pos_as_xyz
  'x, y, z'

loop_
  _atom_site_label
  _atom_site_occupancy
  _atom_site_fract_x
  _atom_site_fract_y
  _atom_site_fract_z
  _atom_site_thermal_displace_type
  _atom_site_B_iso_or_equiv
  _atom_site_type_symbol
  C1       1.0000 0.29357  0.29359  0.11925  Biso   1.000  C
  C2       1.0000 0.29358  0.29358  0.29359  Biso   1.000  C
  C3       1.0000 0.11924  0.29359  0.29358  Biso   1.000  C
  C4       1.0000 0.29358  0.11925  0.29359  Biso   1.000  C
  C5       1.0000 0.70642  0.70642  0.88075  Biso   1.000  C
  C6       1.0000 0.70641  0.70642  0.70642  Biso   1.000  C
  C7       1.0000 0.70642  0.88075  0.70642  Biso   1.000  C
  C8       1.0000 0.88075  0.70642  0.70641  Biso   1.000  C
  C9       1.0000 0.45590  0.45590  0.93650  Biso   1.000  C
  C10      1.0000 0.45590  0.45590  0.15170  Biso   1.000  C
  C11      1.0000 0.93650  0.15170  0.45590  Biso   1.000  C
  C12      1.0000 0.15170  0.93650  0.45590  Biso   1.000  C
  C13      1.0000 0.45590  0.93650  0.15170  Biso   1.000  C
  C14      1.0000 0.45590  0.15170  0.93650  Biso   1.000  C
  C15      1.0000 0.93650  0.45590  0.45590  Biso   1.000  C
  C16      1.0000 0.15170  0.45590  0.45590  Biso   1.000  C
  C17      1.0000 0.45590  0.15170  0.45590  Biso   1.000  C
  C18      1.0000 0.45590  0.93650  0.45590  Biso   1.000  C
  C19      1.0000 0.93650  0.45590  0.15170  Biso   1.000  C
  C20      1.0000 0.15170  0.45590  0.93650  Biso   1.000  C
  C21      1.0000 0.54410  0.54410  0.06350  Biso   1.000  C
  C22      1.0000 0.54410  0.54410  0.84830  Biso   1.000  C
  C23      1.0000 0.84830  0.06350  0.54410  Biso   1.000  C
  C24      1.0000 0.06350  0.84830  0.54410  Biso   1.000  C
  C25      1.0000 0.06350  0.54410  0.84830  Biso   1.000  C
  C26      1.0000 0.84830  0.54410  0.06350  Biso   1.000  C
  C27      1.0000 0.54410  0.06350  0.54410  Biso   1.000  C
  C28      1.0000 0.54410  0.84830  0.54410  Biso   1.000  C
  C29      1.0000 0.84830  0.54410  0.54410  Biso   1.000  C
  C30      1.0000 0.06350  0.54410  0.54410  Biso   1.000  C
  C31      1.0000 0.54410  0.06350  0.84830  Biso   1.000  C
  C32      1.0000 0.54410  0.84830  0.06350  Biso   1.000  C
  C33      1.0000 0.47360  0.47360  0.96326  Biso   1.000  C
  C34      1.0000 0.47360  0.47360  0.08954  Biso   1.000  C
  C35      1.0000 0.96326  0.08954  0.47360  Biso   1.000  C
  C36      1.0000 0.08954  0.96326  0.47360  Biso   1.000  C
  C37      1.0000 0.47360  0.96326  0.08954  Biso   1.000  C
  C38      1.0000 0.47360  0.08954  0.96326  Biso   1.000  C
  C39      1.0000 0.96326  0.47360  0.47360  Biso   1.000  C
  C40      1.0000 0.08954  0.47360  0.47360  Biso   1.000  C
  C41      1.0000 0.47360  0.08954  0.47360  Biso   1.000  C
  C42      1.0000 0.47360  0.96326  0.47360  Biso   1.000  C
  C43      1.0000 0.96326  0.47360  0.08954  Biso   1.000  C
  C44      1.0000 0.08954  0.47360  0.96326  Biso   1.000  C
  C45      1.0000 0.52640  0.52640  0.03674  Biso   1.000  C
  C46      1.0000 0.52640  0.52640  0.91046  Biso   1.000  C
  C47      1.0000 0.91046  0.03674  0.52640  Biso   1.000  C
  C48      1.0000 0.03674  0.91046  0.52640  Biso   1.000  C
  C49      1.0000 0.03674  0.52640  0.91046  Biso   1.000  C
  C50      1.0000 0.91046  0.52640  0.03674  Biso   1.000  C
  C51      1.0000 0.52640  0.03674  0.52640  Biso   1.000  C
  C52      1.0000 0.52640  0.91046  0.52640  Biso   1.000  C
  C53      1.0000 0.91046  0.52640  0.52640  Biso   1.000  C
  C54      1.0000 0.03674  0.52640  0.52640  Biso   1.000  C
  C55      1.0000 0.52640  0.03674  0.91046  Biso   1.000  C
  C56      1.0000 0.52640  0.91046  0.03674  Biso   1.000  C
  C57      1.0000 0.38860  0.38860  0.11140  Biso   1.000  C
  C58      1.0000 0.44640  0.44640  0.05360  Biso   1.000  C
  C59      1.0000 0.11140  0.11140  0.38860  Biso   1.000  C
  C60      1.0000 0.05360  0.05360  0.44640  Biso   1.000  C
  C61      1.0000 0.38860  0.11140  0.11140  Biso   1.000  C
  C62      1.0000 0.44640  0.05360  0.05360  Biso   1.000  C
  C63      1.0000 0.11140  0.38860  0.38860  Biso   1.000  C
  C64      1.0000 0.05360  0.44640  0.44640  Biso   1.000  C
  C65      1.0000 0.38860  0.11140  0.38860  Biso   1.000  C
  C66      1.0000 0.44640  0.05360  0.44640  Biso   1.000  C
  C67      1.0000 0.11140  0.38860  0.11140  Biso   1.000  C
  C68      1.0000 0.05360  0.44640  0.05360  Biso   1.000  C
  C69      1.0000 0.61140  0.61140  0.88860  Biso   1.000  C
  C70      1.0000 0.55360  0.55360  0.94640  Biso   1.000  C
  C71      1.0000 0.88860  0.88860  0.61140  Biso   1.000  C
  C72      1.0000 0.94640  0.94640  0.55360  Biso   1.000  C
  C73      1.0000 0.88860  0.61140  0.88860  Biso   1.000  C
  C74      1.0000 0.94640  0.55360  0.94640  Biso   1.000  C
  C75      1.0000 0.61140  0.88860  0.61140  Biso   1.000  C
  C76      1.0000 0.55360  0.94640  0.55360  Biso   1.000  C
  C77      1.0000 0.88860  0.61140  0.61140  Biso   1.000  C
  C78      1.0000 0.94640  0.55360  0.55360  Biso   1.000  C
  C79      1.0000 0.61140  0.88860  0.88860  Biso   1.000  C
  C80      1.0000 0.55360  0.94640  0.94640  Biso   1.000  C
  C81      1.0000 0.25000  0.25000  0.25000  Biso   1.000  C
  C82      1.0000 0.75000  0.75000  0.75000  Biso   1.000  C
  C83      1.0000 0.36604  0.36604  0.07340  Biso   1.000  C
  C84      1.0000 0.36604  0.36604  0.19452  Biso   1.000  C
  C85      1.0000 0.07340  0.19452  0.36604  Biso   1.000  C
  C86      1.0000 0.19452  0.07340  0.36604  Biso   1.000  C
  C87      1.0000 0.36604  0.07340  0.19452  Biso   1.000  C
  C88      1.0000 0.36604  0.19452  0.07340  Biso   1.000  C
  C89      1.0000 0.07340  0.36604  0.36604  Biso   1.000  C
  C90      1.0000 0.19452  0.36604  0.36604  Biso   1.000  C
  C91      1.0000 0.36604  0.19452  0.36604  Biso   1.000  C
  C92      1.0000 0.36604  0.07340  0.36604  Biso   1.000  C
  C93      1.0000 0.07340  0.36604  0.19452  Biso   1.000  C
  C94      1.0000 0.19452  0.36604  0.07340  Biso   1.000  C
  C95      1.0000 0.63396  0.63396  0.92660  Biso   1.000  C
  C96      1.0000 0.63396  0.63396  0.80548  Biso   1.000  C
  C97      1.0000 0.80548  0.92660  0.63396  Biso   1.000  C
  C98      1.0000 0.92660  0.80548  0.63396  Biso   1.000  C
  C99      1.0000 0.92660  0.63396  0.80548  Biso   1.000  C
  C100     1.0000 0.80548  0.63396  0.92660  Biso   1.000  C
  C101     1.0000 0.63396  0.92660  0.63396  Biso   1.000  C
  C102     1.0000 0.63396  0.80548  0.63396  Biso   1.000  C
  C103     1.0000 0.80548  0.63396  0.63396  Biso   1.000  C
  C104     1.0000 0.92660  0.63396  0.63396  Biso   1.000  C
  C105     1.0000 0.63396  0.92660  0.80548  Biso   1.000  C
  C106     1.0000 0.63396  0.80548  0.92660  Biso   1.000  C
  O1       1.0000 0.68742  0.35020  0.47065  Biso   1.000  O
  O2       1.0000 0.09890  0.76167  0.05923  Biso   1.000  O
  O3       1.0000 0.92422  0.93635  0.05923  Biso   1.000  O
  O4       1.0000 0.51273  0.52489  0.47065  Biso   1.000  O
  O5       1.0000 0.51253  0.35000  0.64549  Biso   1.000  O
  O6       1.0000 0.51266  0.35013  0.47044  Biso   1.000  O
  O7       1.0000 0.09910  0.93655  0.88438  Biso   1.000  O
  O8       1.0000 0.09897  0.93642  0.05944  Biso   1.000  O
  O9       1.0000 0.34971  0.70627  0.61233  Biso   1.000  O
  O10      1.0000 0.34658  0.49163  0.82666  Biso   1.000  O
  O11      1.0000 0.35333  0.70428  0.30921  Biso   1.000  O
  O12      1.0000 0.35283  0.49045  0.30390  Biso   1.000  O
  O13      1.0000 0.86793  0.49105  0.31101  Biso   1.000  O
  O14      1.0000 0.74282  0.09939  0.91755  Biso   1.000  O
  O15      1.0000 0.95748  0.10250  0.70321  Biso   1.000  O
  O16      1.0000 0.74480  0.09576  0.22066  Biso   1.000  O
  O17      1.0000 0.95865  0.09626  0.22597  Biso   1.000  O
  O18      1.0000 0.95804  0.58117  0.21886  Biso   1.000  O
  O19      1.0000 0.26192  0.58029  0.91755  Biso   1.000  O
  O20      1.0000 0.26505  0.79493  0.70321  Biso   1.000  O
  O21      1.0000 0.25830  0.58228  0.22066  Biso   1.000  O
  O22      1.0000 0.25881  0.79610  0.22597  Biso   1.000  O
  O23      1.0000 0.74370  0.79550  0.21886  Biso   1.000  O
  O24      1.0000 0.86882  0.18717  0.61233  Biso   1.000  O
  O25      1.0000 0.65416  0.18405  0.82666  Biso   1.000  O
  O26      1.0000 0.86683  0.19079  0.30921  Biso   1.000  O
  O27      1.0000 0.65298  0.19029  0.30390  Biso   1.000  O
  O28      1.0000 0.65359  0.70538  0.31101  Biso   1.000  O
  O29      1.0000 0.35101  0.18847  0.61162  Biso   1.000  O
  O30      1.0000 0.34829  0.18575  0.83057  Biso   1.000  O
  O31      1.0000 0.26062  0.09808  0.91825  Biso   1.000  O
  O32      1.0000 0.26334  0.10080  0.69930  Biso   1.000  O
  O33      1.0000 0.41783  0.53462  0.65110  Biso   1.000  O
  O34      1.0000 0.35891  0.59172  0.71163  Biso   1.000  O
  O35      1.0000 0.33278  0.67971  0.67475  Biso   1.000  O
  O36      1.0000 0.33096  0.55394  0.80101  Biso   1.000  O
  O37      1.0000 0.41824  0.53343  0.37394  Biso   1.000  O
  O38      1.0000 0.36224  0.58924  0.31692  Biso   1.000  O
  O39      1.0000 0.33440  0.67853  0.29167  Biso   1.000  O
  O40      1.0000 0.33399  0.55257  0.28827  Biso   1.000  O
  O41      1.0000 0.84158  0.55327  0.29147  Biso   1.000  O
  O42      1.0000 0.91449  0.03126  0.87877  Biso   1.000  O
  O43      1.0000 0.85738  0.09017  0.81824  Biso   1.000  O
  O44      1.0000 0.76937  0.11632  0.85512  Biso   1.000  O
  O45      1.0000 0.89516  0.11813  0.72886  Biso   1.000  O
  O46      1.0000 0.91567  0.03085  0.15593  Biso   1.000  O
  O47      1.0000 0.85987  0.08685  0.21295  Biso   1.000  O
  O48      1.0000 0.77055  0.11470  0.23820  Biso   1.000  O
  O49      1.0000 0.89653  0.11510  0.24161  Biso   1.000  O
  O50      1.0000 0.89583  0.60752  0.23840  Biso   1.000  O
  O51      1.0000 0.19381  0.75194  0.87877  Biso   1.000  O
  O52      1.0000 0.25272  0.69483  0.81824  Biso   1.000  O
  O53      1.0000 0.27886  0.60684  0.85512  Biso   1.000  O
  O54      1.0000 0.28068  0.73261  0.72886  Biso   1.000  O
  O55      1.0000 0.19339  0.75313  0.15593  Biso   1.000  O
  O56      1.0000 0.24939  0.69732  0.21295  Biso   1.000  O
  O57      1.0000 0.27723  0.60802  0.23820  Biso   1.000  O
  O58      1.0000 0.27764  0.73398  0.24161  Biso   1.000  O
  O59      1.0000 0.77005  0.73328  0.23840  Biso   1.000  O
  O60      1.0000 0.69715  0.25529  0.65110  Biso   1.000  O
  O61      1.0000 0.75425  0.19638  0.71163  Biso   1.000  O
  O62      1.0000 0.84226  0.17023  0.67475  Biso   1.000  O
  O63      1.0000 0.71647  0.16842  0.80101  Biso   1.000  O
  O64      1.0000 0.69596  0.25571  0.37394  Biso   1.000  O
  O65      1.0000 0.75177  0.19971  0.31692  Biso   1.000  O
  O66      1.0000 0.84108  0.17186  0.29167  Biso   1.000  O
  O67      1.0000 0.71510  0.17145  0.28827  Biso   1.000  O
  O68      1.0000 0.71581  0.67903  0.29147  Biso   1.000  O
  O69      1.0000 0.41613  0.25359  0.65772  Biso   1.000  O
  O70      1.0000 0.35992  0.19738  0.71083  Biso   1.000  O
  O71      1.0000 0.33327  0.17073  0.67375  Biso   1.000  O
  O72      1.0000 0.33086  0.16832  0.80301  Biso   1.000  O
  O73      1.0000 0.69305  0.53052  0.37915  Biso   1.000  O
  O74      1.0000 0.75337  0.59084  0.31702  Biso   1.000  O
  O75      1.0000 0.19551  0.03296  0.87215  Biso   1.000  O
  O76      1.0000 0.25171  0.08917  0.81905  Biso   1.000  O
  O77      1.0000 0.27836  0.11582  0.85612  Biso   1.000  O
  O78      1.0000 0.28077  0.11823  0.72686  Biso   1.000  O
  O79      1.0000 0.91858  0.75603  0.15072  Biso   1.000  O
  O80      1.0000 0.85827  0.69571  0.21285  Biso   1.000  O
  O81      1.0000 0.43796  0.44875  0.69469  Biso   1.000  O
  O82      1.0000 0.44037  0.57520  0.56824  Biso   1.000  O
  O83      1.0000 0.43768  0.44767  0.39929  Biso   1.000  O
  O84      1.0000 0.43988  0.57370  0.39649  Biso   1.000  O
  O85      1.0000 0.73553  0.44737  0.39879  Biso   1.000  O
  O86      1.0000 0.00035  0.01113  0.83518  Biso   1.000  O
  O87      1.0000 0.87391  0.00871  0.96164  Biso   1.000  O
  O88      1.0000 0.00143  0.01141  0.13058  Biso   1.000  O
  O89      1.0000 0.87540  0.00921  0.13339  Biso   1.000  O
  O90      1.0000 0.00174  0.71355  0.13108  Biso   1.000  O
  O91      1.0000 0.17367  0.83780  0.83518  Biso   1.000  O
  O92      1.0000 0.17126  0.71136  0.96164  Biso   1.000  O
  O93      1.0000 0.17395  0.83889  0.13058  Biso   1.000  O
  O94      1.0000 0.17175  0.71285  0.13339  Biso   1.000  O
  O95      1.0000 0.87610  0.83919  0.13108  Biso   1.000  O
  O96      1.0000 0.61128  0.27543  0.69469  Biso   1.000  O
  O97      1.0000 0.73773  0.27784  0.56824  Biso   1.000  O
  O98      1.0000 0.61020  0.27514  0.39929  Biso   1.000  O
  O99      1.0000 0.73623  0.27735  0.39649  Biso   1.000  O
  O100     1.0000 0.60990  0.57300  0.39879  Biso   1.000  O
  O101     1.0000 0.55619  0.39366  0.51463  Biso   1.000  O
  O102     1.0000 0.43937  0.27683  0.69369  Biso   1.000  O
  O103     1.0000 0.43777  0.27523  0.57294  Biso   1.000  O
  O104     1.0000 0.05544  0.89289  0.01525  Biso   1.000  O
  O105     1.0000 0.17227  0.00972  0.83618  Biso   1.000  O
  O106     1.0000 0.17386  0.01132  0.95693  Biso   1.000  O
