data_image0
_cell_length_a       18.2455
_cell_length_b       18.2455
_cell_length_c       18.2455
_cell_angle_alpha    60
_cell_angle_beta     60
_cell_angle_gamma    60

_symmetry_space_group_name_H-M    "P 1"
_symmetry_int_tables_number       1

loop_
  _symmetry_equiv_pos_as_xyz
  'x, y, z'

loop_
  _atom_site_label
  _atom_site_occupancy
  _atom_site_fract_x
  _atom_site_fract_y
  _atom_site_fract_z
  _atom_site_thermal_displace_type
  _atom_site_B_iso_or_equiv
  _atom_site_type_symbol
  Zn1      1.0000 0.29354  0.29354  0.11938  Biso   1.000  Zn
  Zn2      1.0000 0.29354  0.29354  0.29354  Biso   1.000  Zn
  Zn3      1.0000 0.11938  0.29354  0.29354  Biso   1.000  Zn
  Zn4      1.0000 0.29354  0.11938  0.29354  Biso   1.000  Zn
  Zn5      1.0000 0.70646  0.70646  0.88062  Biso   1.000  Zn
  Zn6      1.0000 0.70646  0.70646  0.70646  Biso   1.000  Zn
  Zn7      1.0000 0.70646  0.88062  0.70646  Biso   1.000  Zn
  Zn8      1.0000 0.88062  0.70646  0.70646  Biso   1.000  Zn
  H1       1.0000 0.45580  0.45580  0.93620  Biso   1.000  H
  H2       1.0000 0.45580  0.45580  0.15220  Biso   1.000  H
  H3       1.0000 0.93620  0.15220  0.45580  Biso   1.000  H
  H4       1.0000 0.15220  0.93620  0.45580  Biso   1.000  H
  H5       1.0000 0.45580  0.93620  0.15220  Biso   1.000  H
  H6       1.0000 0.45580  0.15220  0.93620  Biso   1.000  H
  H7       1.0000 0.93620  0.45580  0.45580  Biso   1.000  H
  H8       1.0000 0.15220  0.45580  0.45580  Biso   1.000  H
  H9       1.0000 0.45580  0.15220  0.45580  Biso   1.000  H
  H10      1.0000 0.45580  0.93620  0.45580  Biso   1.000  H
  H11      1.0000 0.93620  0.45580  0.15220  Biso   1.000  H
  H12      1.0000 0.15220  0.45580  0.93620  Biso   1.000  H
  H13      1.0000 0.54420  0.54420  0.06380  Biso   1.000  H
  H14      1.0000 0.54420  0.54420  0.84780  Biso   1.000  H
  H15      1.0000 0.84780  0.06380  0.54420  Biso   1.000  H
  H16      1.0000 0.06380  0.84780  0.54420  Biso   1.000  H
  H17      1.0000 0.06380  0.54420  0.84780  Biso   1.000  H
  H18      1.0000 0.84780  0.54420  0.06380  Biso   1.000  H
  H19      1.0000 0.54420  0.06380  0.54420  Biso   1.000  H
  H20      1.0000 0.54420  0.84780  0.54420  Biso   1.000  H
  H21      1.0000 0.84780  0.54420  0.54420  Biso   1.000  H
  H22      1.0000 0.06380  0.54420  0.54420  Biso   1.000  H
  H23      1.0000 0.54420  0.06380  0.84780  Biso   1.000  H
  H24      1.0000 0.54420  0.84780  0.06380  Biso   1.000  H
  C1       1.0000 0.47345  0.47345  0.96303  Biso   1.000  C
  C2       1.0000 0.47345  0.47345  0.09007  Biso   1.000  C
  C3       1.0000 0.96303  0.09007  0.47345  Biso   1.000  C
  C4       1.0000 0.09007  0.96303  0.47345  Biso   1.000  C
  C5       1.0000 0.47345  0.96303  0.09007  Biso   1.000  C
  C6       1.0000 0.47345  0.09007  0.96303  Biso   1.000  C
  C7       1.0000 0.96303  0.47345  0.47345  Biso   1.000  C
  C8       1.0000 0.09007  0.47345  0.47345  Biso   1.000  C
  C9       1.0000 0.47345  0.09007  0.47345  Biso   1.000  C
  C10      1.0000 0.47345  0.96303  0.47345  Biso   1.000  C
  C11      1.0000 0.96303  0.47345  0.09007  Biso   1.000  C
  C12      1.0000 0.09007  0.47345  0.96303  Biso   1.000  C
  C13      1.0000 0.52655  0.52655  0.03697  Biso   1.000  C
  C14      1.0000 0.52655  0.52655  0.90993  Biso   1.000  C
  C15      1.0000 0.90993  0.03697  0.52655  Biso   1.000  C
  C16      1.0000 0.03697  0.90993  0.52655  Biso   1.000  C
  C17      1.0000 0.03697  0.52655  0.90993  Biso   1.000  C
  C18      1.0000 0.90993  0.52655  0.03697  Biso   1.000  C
  C19      1.0000 0.52655  0.03697  0.52655  Biso   1.000  C
  C20      1.0000 0.52655  0.90993  0.52655  Biso   1.000  C
  C21      1.0000 0.90993  0.52655  0.52655  Biso   1.000  C
  C22      1.0000 0.03697  0.52655  0.52655  Biso   1.000  C
  C23      1.0000 0.52655  0.03697  0.90993  Biso   1.000  C
  C24      1.0000 0.52655  0.90993  0.03697  Biso   1.000  C
  C25      1.0000 0.38857  0.38857  0.11143  Biso   1.000  C
  C26      1.0000 0.44620  0.44620  0.05380  Biso   1.000  C
  C27      1.0000 0.11143  0.11143  0.38857  Biso   1.000  C
  C28      1.0000 0.05380  0.05380  0.44620  Biso   1.000  C
  C29      1.0000 0.38857  0.11143  0.11143  Biso   1.000  C
  C30      1.0000 0.44620  0.05380  0.05380  Biso   1.000  C
  C31      1.0000 0.11143  0.38857  0.38857  Biso   1.000  C
  C32      1.0000 0.05380  0.44620  0.44620  Biso   1.000  C
  C33      1.0000 0.38857  0.11143  0.38857  Biso   1.000  C
  C34      1.0000 0.44620  0.05380  0.44620  Biso   1.000  C
  C35      1.0000 0.11143  0.38857  0.11143  Biso   1.000  C
  C36      1.0000 0.05380  0.44620  0.05380  Biso   1.000  C
  C37      1.0000 0.61143  0.61143  0.88857  Biso   1.000  C
  C38      1.0000 0.55380  0.55380  0.94620  Biso   1.000  C
  C39      1.0000 0.88857  0.88857  0.61143  Biso   1.000  C
  C40      1.0000 0.94620  0.94620  0.55380  Biso   1.000  C
  C41      1.0000 0.88857  0.61143  0.88857  Biso   1.000  C
  C42      1.0000 0.94620  0.55380  0.94620  Biso   1.000  C
  C43      1.0000 0.61143  0.88857  0.61143  Biso   1.000  C
  C44      1.0000 0.55380  0.94620  0.55380  Biso   1.000  C
  C45      1.0000 0.88857  0.61143  0.61143  Biso   1.000  C
  C46      1.0000 0.94620  0.55380  0.55380  Biso   1.000  C
  C47      1.0000 0.61143  0.88857  0.88857  Biso   1.000  C
  C48      1.0000 0.55380  0.94620  0.94620  Biso   1.000  C
  O1       1.0000 0.25000  0.25000  0.25000  Biso   1.000  O
  O2       1.0000 0.75000  0.75000  0.75000  Biso   1.000  O
  O3       1.0000 0.36603  0.36603  0.07311  Biso   1.000  O
  O4       1.0000 0.36603  0.36603  0.19483  Biso   1.000  O
  O5       1.0000 0.07311  0.19483  0.36603  Biso   1.000  O
  O6       1.0000 0.19483  0.07311  0.36603  Biso   1.000  O
  O7       1.0000 0.36603  0.07311  0.19483  Biso   1.000  O
  O8       1.0000 0.36603  0.19483  0.07311  Biso   1.000  O
  O9       1.0000 0.07311  0.36603  0.36603  Biso   1.000  O
  O10      1.0000 0.19483  0.36603  0.36603  Biso   1.000  O
  O11      1.0000 0.36603  0.19483  0.36603  Biso   1.000  O
  O12      1.0000 0.36603  0.07311  0.36603  Biso   1.000  O
  O13      1.0000 0.07311  0.36603  0.19483  Biso   1.000  O
  O14      1.0000 0.19483  0.36603  0.07311  Biso   1.000  O
  O15      1.0000 0.63397  0.63397  0.92689  Biso   1.000  O
  O16      1.0000 0.63397  0.63397  0.80517  Biso   1.000  O
  O17      1.0000 0.80517  0.92689  0.63397  Biso   1.000  O
  O18      1.0000 0.92689  0.80517  0.63397  Biso   1.000  O
  O19      1.0000 0.92689  0.63397  0.80517  Biso   1.000  O
  O20      1.0000 0.80517  0.63397  0.92689  Biso   1.000  O
  O21      1.0000 0.63397  0.92689  0.63397  Biso   1.000  O
  O22      1.0000 0.63397  0.80517  0.63397  Biso   1.000  O
  O23      1.0000 0.80517  0.63397  0.63397  Biso   1.000  O
  O24      1.0000 0.92689  0.63397  0.63397  Biso   1.000  O
  O25      1.0000 0.63397  0.92689  0.80517  Biso   1.000  O
  O26      1.0000 0.63397  0.80517  0.92689  Biso   1.000  O
  Zn9      1.0000 0.89397  0.75704  0.43249  Biso   1.000  Zn
  Zn10     1.0000 0.06862  0.75704  0.25784  Biso   1.000  Zn
  Zn11     1.0000 0.89397  0.75704  0.25784  Biso   1.000  Zn
  Zn12     1.0000 0.89397  0.93169  0.25784  Biso   1.000  Zn
  Zn13     1.0000 0.48799  0.34214  0.66830  Biso   1.000  Zn
  Zn14     1.0000 0.31334  0.34214  0.84294  Biso   1.000  Zn
  Zn15     1.0000 0.48799  0.16750  0.84294  Biso   1.000  Zn
  Zn16     1.0000 0.48799  0.34214  0.84294  Biso   1.000  Zn
  H25      1.0000 0.03772  0.59479  0.61325  Biso   1.000  H
  H26      1.0000 0.25384  0.59479  0.39713  Biso   1.000  H
  H27      1.0000 0.73618  0.89633  0.09559  Biso   1.000  H
  H28      1.0000 0.73618  0.11245  0.09559  Biso   1.000  H
  H29      1.0000 0.73618  0.11245  0.39713  Biso   1.000  H
  H30      1.0000 0.73618  0.89633  0.61325  Biso   1.000  H
  H31      1.0000 0.03772  0.59479  0.09559  Biso   1.000  H
  H32      1.0000 0.25384  0.59479  0.09559  Biso   1.000  H
  H33      1.0000 0.25384  0.89633  0.09559  Biso   1.000  H
  H34      1.0000 0.03772  0.11245  0.09559  Biso   1.000  H
  H35      1.0000 0.73618  0.59479  0.39713  Biso   1.000  H
  H36      1.0000 0.73618  0.59479  0.61325  Biso   1.000  H
  H37      1.0000 0.34424  0.50439  0.48753  Biso   1.000  H
  H38      1.0000 0.12812  0.50439  0.70365  Biso   1.000  H
  H39      1.0000 0.64578  0.98673  0.00519  Biso   1.000  H
  H40      1.0000 0.64578  0.20286  0.00519  Biso   1.000  H
  H41      1.0000 0.64578  0.50439  0.70365  Biso   1.000  H
  H42      1.0000 0.64578  0.50439  0.48753  Biso   1.000  H
  H43      1.0000 0.34424  0.98673  0.00519  Biso   1.000  H
  H44      1.0000 0.12812  0.20286  0.00519  Biso   1.000  H
  H45      1.0000 0.12812  0.50439  0.00519  Biso   1.000  H
  H46      1.0000 0.34424  0.50439  0.00519  Biso   1.000  H
  H47      1.0000 0.64578  0.98673  0.70365  Biso   1.000  H
  H48      1.0000 0.64578  0.20286  0.48753  Biso   1.000  H
  C49      1.0000 0.10136  0.57649  0.58621  Biso   1.000  C
  C50      1.0000 0.22680  0.57649  0.46077  Biso   1.000  C
  C51      1.0000 0.71788  0.95997  0.07729  Biso   1.000  C
  C52      1.0000 0.71788  0.08541  0.07729  Biso   1.000  C
  C53      1.0000 0.71788  0.08541  0.46077  Biso   1.000  C
  C54      1.0000 0.71788  0.95997  0.58621  Biso   1.000  C
  C55      1.0000 0.10136  0.57649  0.07729  Biso   1.000  C
  C56      1.0000 0.22680  0.57649  0.07729  Biso   1.000  C
  C57      1.0000 0.22680  0.95997  0.07729  Biso   1.000  C
  C58      1.0000 0.10136  0.08541  0.07729  Biso   1.000  C
  C59      1.0000 0.71788  0.57649  0.46077  Biso   1.000  C
  C60      1.0000 0.71788  0.57649  0.58621  Biso   1.000  C
  C61      1.0000 0.28060  0.52269  0.51457  Biso   1.000  C
  C62      1.0000 0.15516  0.52269  0.64001  Biso   1.000  C
  C63      1.0000 0.66408  0.01377  0.02349  Biso   1.000  C
  C64      1.0000 0.66408  0.13921  0.02349  Biso   1.000  C
  C65      1.0000 0.66408  0.52269  0.64001  Biso   1.000  C
  C66      1.0000 0.66408  0.52269  0.51457  Biso   1.000  C
  C67      1.0000 0.28060  0.01377  0.02349  Biso   1.000  C
  C68      1.0000 0.15516  0.13921  0.02349  Biso   1.000  C
  C69      1.0000 0.15516  0.52269  0.02349  Biso   1.000  C
  C70      1.0000 0.28060  0.52269  0.02349  Biso   1.000  C
  C71      1.0000 0.66408  0.01377  0.64001  Biso   1.000  C
  C72      1.0000 0.66408  0.13921  0.51457  Biso   1.000  C
  C73      1.0000 0.07666  0.66169  0.44052  Biso   1.000  C
  C74      1.0000 0.13490  0.60344  0.49877  Biso   1.000  C
  C75      1.0000 0.79862  0.93972  0.16249  Biso   1.000  C
  C76      1.0000 0.74037  0.99797  0.10424  Biso   1.000  C
  C77      1.0000 0.79862  0.93972  0.44052  Biso   1.000  C
  C78      1.0000 0.74037  0.99797  0.49877  Biso   1.000  C
  C79      1.0000 0.07666  0.66169  0.16249  Biso   1.000  C
  C80      1.0000 0.13490  0.60344  0.10424  Biso   1.000  C
  C81      1.0000 0.07666  0.93972  0.16249  Biso   1.000  C
  C82      1.0000 0.13490  0.99797  0.10424  Biso   1.000  C
  C83      1.0000 0.79862  0.66169  0.44052  Biso   1.000  C
  C84      1.0000 0.74037  0.60344  0.49877  Biso   1.000  C
  C85      1.0000 0.30531  0.43750  0.66026  Biso   1.000  C
  C86      1.0000 0.24706  0.49574  0.60201  Biso   1.000  C
  C87      1.0000 0.58334  0.15946  0.93829  Biso   1.000  C
  C88      1.0000 0.64159  0.10121  0.99654  Biso   1.000  C
  C89      1.0000 0.58334  0.43750  0.66026  Biso   1.000  C
  C90      1.0000 0.64159  0.49574  0.60201  Biso   1.000  C
  C91      1.0000 0.30531  0.15946  0.93829  Biso   1.000  C
  C92      1.0000 0.24706  0.10121  0.99654  Biso   1.000  C
  C93      1.0000 0.30531  0.43750  0.93829  Biso   1.000  C
  C94      1.0000 0.24706  0.49574  0.99654  Biso   1.000  C
  C95      1.0000 0.58334  0.15946  0.66026  Biso   1.000  C
  C96      1.0000 0.64159  0.10121  0.60201  Biso   1.000  C
  O27      1.0000 0.93764  0.80071  0.30151  Biso   1.000  O
  O28      1.0000 0.44432  0.29848  0.79928  Biso   1.000  O
  O29      1.0000 0.99310  0.68407  0.47931  Biso   1.000  O
  O30      1.0000 0.11545  0.68407  0.35697  Biso   1.000  O
  O31      1.0000 0.82100  0.85617  0.18487  Biso   1.000  O
  O32      1.0000 0.82100  0.97852  0.18487  Biso   1.000  O
  O33      1.0000 0.82100  0.97852  0.35697  Biso   1.000  O
  O34      1.0000 0.82100  0.85617  0.47931  Biso   1.000  O
  O35      1.0000 0.99310  0.68407  0.18487  Biso   1.000  O
  O36      1.0000 0.11545  0.68407  0.18487  Biso   1.000  O
  O37      1.0000 0.11545  0.85617  0.18487  Biso   1.000  O
  O38      1.0000 0.99310  0.97852  0.18487  Biso   1.000  O
  O39      1.0000 0.82100  0.68407  0.35697  Biso   1.000  O
  O40      1.0000 0.82100  0.68407  0.47931  Biso   1.000  O
  O41      1.0000 0.38886  0.41512  0.62147  Biso   1.000  O
  O42      1.0000 0.26651  0.41512  0.74381  Biso   1.000  O
  O43      1.0000 0.56096  0.12067  0.91592  Biso   1.000  O
  O44      1.0000 0.56096  0.24301  0.91592  Biso   1.000  O
  O45      1.0000 0.56096  0.41512  0.74381  Biso   1.000  O
  O46      1.0000 0.56096  0.41512  0.62147  Biso   1.000  O
  O47      1.0000 0.38886  0.12067  0.91592  Biso   1.000  O
  O48      1.0000 0.26651  0.24301  0.91592  Biso   1.000  O
  O49      1.0000 0.26651  0.41512  0.91592  Biso   1.000  O
  O50      1.0000 0.38886  0.41512  0.91592  Biso   1.000  O
  O51      1.0000 0.56096  0.12067  0.74381  Biso   1.000  O
  O52      1.0000 0.56096  0.24301  0.62147  Biso   1.000  O
