data_image0
_cell_length_a       18.2422
_cell_length_b       18.2422
_cell_length_c       18.2422
_cell_angle_alpha    60
_cell_angle_beta     60
_cell_angle_gamma    60

_symmetry_space_group_name_H-M    "P 1"
_symmetry_int_tables_number       1

loop_
  _symmetry_equiv_pos_as_xyz
  'x, y, z'

loop_
  _atom_site_label
  _atom_site_occupancy
  _atom_site_fract_x
  _atom_site_fract_y
  _atom_site_fract_z
  _atom_site_thermal_displace_type
  _atom_site_B_iso_or_equiv
  _atom_site_type_symbol
  C1       1.0000 0.29356  0.29355  0.11934  Biso   1.000  C
  C2       1.0000 0.29356  0.29355  0.29355  Biso   1.000  C
  C3       1.0000 0.11935  0.29355  0.29355  Biso   1.000  C
  C4       1.0000 0.29356  0.11934  0.29355  Biso   1.000  C
  C5       1.0000 0.70644  0.70645  0.88066  Biso   1.000  C
  C6       1.0000 0.70644  0.70645  0.70645  Biso   1.000  C
  C7       1.0000 0.70644  0.88066  0.70645  Biso   1.000  C
  C8       1.0000 0.88065  0.70645  0.70645  Biso   1.000  C
  C9       1.0000 0.45610  0.45610  0.93590  Biso   1.000  C
  C10      1.0000 0.45610  0.45610  0.15190  Biso   1.000  C
  C11      1.0000 0.93590  0.15190  0.45610  Biso   1.000  C
  C12      1.0000 0.15190  0.93590  0.45610  Biso   1.000  C
  C13      1.0000 0.45610  0.93590  0.15190  Biso   1.000  C
  C14      1.0000 0.45610  0.15190  0.93590  Biso   1.000  C
  C15      1.0000 0.93590  0.45610  0.45610  Biso   1.000  C
  C16      1.0000 0.15190  0.45610  0.45610  Biso   1.000  C
  C17      1.0000 0.45610  0.15190  0.45610  Biso   1.000  C
  C18      1.0000 0.45610  0.93590  0.45610  Biso   1.000  C
  C19      1.0000 0.93590  0.45610  0.15190  Biso   1.000  C
  C20      1.0000 0.15190  0.45610  0.93590  Biso   1.000  C
  C21      1.0000 0.54390  0.54390  0.06410  Biso   1.000  C
  C22      1.0000 0.54390  0.54390  0.84810  Biso   1.000  C
  C23      1.0000 0.84810  0.06410  0.54390  Biso   1.000  C
  C24      1.0000 0.06410  0.84810  0.54390  Biso   1.000  C
  C25      1.0000 0.06410  0.54390  0.84810  Biso   1.000  C
  C26      1.0000 0.84810  0.54390  0.06410  Biso   1.000  C
  C27      1.0000 0.54390  0.06410  0.54390  Biso   1.000  C
  C28      1.0000 0.54390  0.84810  0.54390  Biso   1.000  C
  C29      1.0000 0.84810  0.54390  0.54390  Biso   1.000  C
  C30      1.0000 0.06410  0.54390  0.54390  Biso   1.000  C
  C31      1.0000 0.54390  0.06410  0.84810  Biso   1.000  C
  C32      1.0000 0.54390  0.84810  0.06410  Biso   1.000  C
  C33      1.0000 0.47369  0.47369  0.96285  Biso   1.000  C
  C34      1.0000 0.47369  0.47369  0.08977  Biso   1.000  C
  C35      1.0000 0.96285  0.08977  0.47369  Biso   1.000  C
  C36      1.0000 0.08977  0.96285  0.47369  Biso   1.000  C
  C37      1.0000 0.47369  0.96285  0.08977  Biso   1.000  C
  C38      1.0000 0.47369  0.08977  0.96285  Biso   1.000  C
  C39      1.0000 0.96285  0.47369  0.47369  Biso   1.000  C
  C40      1.0000 0.08977  0.47369  0.47369  Biso   1.000  C
  C41      1.0000 0.47369  0.08977  0.47369  Biso   1.000  C
  C42      1.0000 0.47369  0.96285  0.47369  Biso   1.000  C
  C43      1.0000 0.96285  0.47369  0.08977  Biso   1.000  C
  C44      1.0000 0.08977  0.47369  0.96285  Biso   1.000  C
  C45      1.0000 0.52631  0.52631  0.03715  Biso   1.000  C
  C46      1.0000 0.52631  0.52631  0.91023  Biso   1.000  C
  C47      1.0000 0.91023  0.03715  0.52631  Biso   1.000  C
  C48      1.0000 0.03715  0.91023  0.52631  Biso   1.000  C
  C49      1.0000 0.03715  0.52631  0.91023  Biso   1.000  C
  C50      1.0000 0.91023  0.52631  0.03715  Biso   1.000  C
  C51      1.0000 0.52631  0.03715  0.52631  Biso   1.000  C
  C52      1.0000 0.52631  0.91023  0.52631  Biso   1.000  C
  C53      1.0000 0.91023  0.52631  0.52631  Biso   1.000  C
  C54      1.0000 0.03715  0.52631  0.52631  Biso   1.000  C
  C55      1.0000 0.52631  0.03715  0.91023  Biso   1.000  C
  C56      1.0000 0.52631  0.91023  0.03715  Biso   1.000  C
  C57      1.0000 0.38870  0.38870  0.11130  Biso   1.000  C
  C58      1.0000 0.44610  0.44610  0.05390  Biso   1.000  C
  C59      1.0000 0.11130  0.11130  0.38870  Biso   1.000  C
  C60      1.0000 0.05390  0.05390  0.44610  Biso   1.000  C
  C61      1.0000 0.38870  0.11130  0.11130  Biso   1.000  C
  C62      1.0000 0.44610  0.05390  0.05390  Biso   1.000  C
  C63      1.0000 0.11130  0.38870  0.38870  Biso   1.000  C
  C64      1.0000 0.05390  0.44610  0.44610  Biso   1.000  C
  C65      1.0000 0.38870  0.11130  0.38870  Biso   1.000  C
  C66      1.0000 0.44610  0.05390  0.44610  Biso   1.000  C
  C67      1.0000 0.11130  0.38870  0.11130  Biso   1.000  C
  C68      1.0000 0.05390  0.44610  0.05390  Biso   1.000  C
  C69      1.0000 0.61130  0.61130  0.88870  Biso   1.000  C
  C70      1.0000 0.55390  0.55390  0.94610  Biso   1.000  C
  C71      1.0000 0.88870  0.88870  0.61130  Biso   1.000  C
  C72      1.0000 0.94610  0.94610  0.55390  Biso   1.000  C
  C73      1.0000 0.88870  0.61130  0.88870  Biso   1.000  C
  C74      1.0000 0.94610  0.55390  0.94610  Biso   1.000  C
  C75      1.0000 0.61130  0.88870  0.61130  Biso   1.000  C
  C76      1.0000 0.55390  0.94610  0.55390  Biso   1.000  C
  C77      1.0000 0.88870  0.61130  0.61130  Biso   1.000  C
  C78      1.0000 0.94610  0.55390  0.55390  Biso   1.000  C
  C79      1.0000 0.61130  0.88870  0.88870  Biso   1.000  C
  C80      1.0000 0.55390  0.94610  0.94610  Biso   1.000  C
  C81      1.0000 0.25000  0.25000  0.25000  Biso   1.000  C
  C82      1.0000 0.75000  0.75000  0.75000  Biso   1.000  C
  C83      1.0000 0.36609  0.36609  0.07323  Biso   1.000  C
  C84      1.0000 0.36609  0.36609  0.19459  Biso   1.000  C
  C85      1.0000 0.07323  0.19459  0.36609  Biso   1.000  C
  C86      1.0000 0.19459  0.07323  0.36609  Biso   1.000  C
  C87      1.0000 0.36609  0.07323  0.19459  Biso   1.000  C
  C88      1.0000 0.36609  0.19459  0.07323  Biso   1.000  C
  C89      1.0000 0.07323  0.36609  0.36609  Biso   1.000  C
  C90      1.0000 0.19459  0.36609  0.36609  Biso   1.000  C
  C91      1.0000 0.36609  0.19459  0.36609  Biso   1.000  C
  C92      1.0000 0.36609  0.07323  0.36609  Biso   1.000  C
  C93      1.0000 0.07323  0.36609  0.19459  Biso   1.000  C
  C94      1.0000 0.19459  0.36609  0.07323  Biso   1.000  C
  C95      1.0000 0.63391  0.63391  0.92677  Biso   1.000  C
  C96      1.0000 0.63391  0.63391  0.80541  Biso   1.000  C
  C97      1.0000 0.80541  0.92677  0.63391  Biso   1.000  C
  C98      1.0000 0.92677  0.80541  0.63391  Biso   1.000  C
  C99      1.0000 0.92677  0.63391  0.80541  Biso   1.000  C
  C100     1.0000 0.80541  0.63391  0.92677  Biso   1.000  C
  C101     1.0000 0.63391  0.92677  0.63391  Biso   1.000  C
  C102     1.0000 0.63391  0.80541  0.63391  Biso   1.000  C
  C103     1.0000 0.80541  0.63391  0.63391  Biso   1.000  C
  C104     1.0000 0.92677  0.63391  0.63391  Biso   1.000  C
  C105     1.0000 0.63391  0.92677  0.80541  Biso   1.000  C
  C106     1.0000 0.63391  0.80541  0.92677  Biso   1.000  C
  O1       1.0000 0.59475  0.08010  0.71932  Biso   1.000  O
  O2       1.0000 0.59475  0.25407  0.71932  Biso   1.000  O
  O3       1.0000 0.42078  0.25407  0.71933  Biso   1.000  O
  O4       1.0000 0.59475  0.25407  0.54535  Biso   1.000  O
  O5       1.0000 0.01448  0.66485  0.13010  Biso   1.000  O
  O6       1.0000 0.01448  0.83882  0.13010  Biso   1.000  O
  O7       1.0000 0.18846  0.66485  0.13010  Biso   1.000  O
  O8       1.0000 0.01448  0.66485  0.30407  Biso   1.000  O
  O9       1.0000 0.46347  0.89537  0.87733  Biso   1.000  O
  O10      1.0000 0.75276  0.41208  0.58804  Biso   1.000  O
  O11      1.0000 0.23605  0.12279  0.87733  Biso   1.000  O
  O12      1.0000 0.75276  0.41208  0.36063  Biso   1.000  O
  O13      1.0000 0.23605  0.41208  0.58804  Biso   1.000  O
  O14      1.0000 0.75276  0.12279  0.87733  Biso   1.000  O
  O15      1.0000 0.46347  0.41208  0.36063  Biso   1.000  O
  O16      1.0000 0.75276  0.89537  0.87733  Biso   1.000  O
  O17      1.0000 0.75276  0.12279  0.36063  Biso   1.000  O
  O18      1.0000 0.46347  0.41208  0.87733  Biso   1.000  O
  O19      1.0000 0.75276  0.89537  0.58804  Biso   1.000  O
  O20      1.0000 0.23605  0.41208  0.87733  Biso   1.000  O
  O21      1.0000 0.14577  0.50684  0.97209  Biso   1.000  O
  O22      1.0000 0.85648  0.02354  0.26138  Biso   1.000  O
  O23      1.0000 0.37318  0.50684  0.97209  Biso   1.000  O
  O24      1.0000 0.85648  0.79613  0.48880  Biso   1.000  O
  O25      1.0000 0.37318  0.50684  0.26138  Biso   1.000  O
  O26      1.0000 0.85648  0.02354  0.97209  Biso   1.000  O
  O27      1.0000 0.14577  0.50684  0.48880  Biso   1.000  O
  O28      1.0000 0.85648  0.79613  0.97209  Biso   1.000  O
  O29      1.0000 0.85648  0.50684  0.48880  Biso   1.000  O
  O30      1.0000 0.14577  0.02354  0.97209  Biso   1.000  O
  O31      1.0000 0.85648  0.50684  0.26138  Biso   1.000  O
  O32      1.0000 0.37318  0.79613  0.97209  Biso   1.000  O
  O33      1.0000 0.39275  0.92109  0.89983  Biso   1.000  O
  O34      1.0000 0.77526  0.43458  0.51732  Biso   1.000  O
  O35      1.0000 0.26177  0.05207  0.89983  Biso   1.000  O
  O36      1.0000 0.77526  0.43458  0.38634  Biso   1.000  O
  O37      1.0000 0.26177  0.43458  0.51732  Biso   1.000  O
  O38      1.0000 0.77526  0.05207  0.89983  Biso   1.000  O
  O39      1.0000 0.39275  0.43458  0.38634  Biso   1.000  O
  O40      1.0000 0.77526  0.92109  0.89983  Biso   1.000  O
  O41      1.0000 0.77526  0.05207  0.38634  Biso   1.000  O
  O42      1.0000 0.39275  0.43458  0.89983  Biso   1.000  O
  O43      1.0000 0.77526  0.92109  0.51732  Biso   1.000  O
  O44      1.0000 0.26177  0.43458  0.89983  Biso   1.000  O
  O45      1.0000 0.21648  0.48434  0.94959  Biso   1.000  O
  O46      1.0000 0.83398  0.99783  0.33210  Biso   1.000  O
  O47      1.0000 0.34747  0.48434  0.94959  Biso   1.000  O
  O48      1.0000 0.83398  0.86685  0.46308  Biso   1.000  O
  O49      1.0000 0.34747  0.48434  0.33210  Biso   1.000  O
  O50      1.0000 0.83398  0.99783  0.94959  Biso   1.000  O
  O51      1.0000 0.21648  0.48434  0.46308  Biso   1.000  O
  O52      1.0000 0.83398  0.86685  0.94959  Biso   1.000  O
  O53      1.0000 0.83398  0.48434  0.46308  Biso   1.000  O
  O54      1.0000 0.21648  0.99783  0.94959  Biso   1.000  O
  O55      1.0000 0.83398  0.48434  0.33210  Biso   1.000  O
  O56      1.0000 0.34747  0.86685  0.94959  Biso   1.000  O
  O57      1.0000 0.41134  0.07066  0.81575  Biso   1.000  O
  O58      1.0000 0.35458  0.01390  0.87251  Biso   1.000  O
  O59      1.0000 0.69118  0.35050  0.53591  Biso   1.000  O
  O60      1.0000 0.74794  0.40726  0.47915  Biso   1.000  O
  O61      1.0000 0.41134  0.35050  0.53591  Biso   1.000  O
  O62      1.0000 0.35458  0.40726  0.47915  Biso   1.000  O
  O63      1.0000 0.69118  0.07066  0.81575  Biso   1.000  O
  O64      1.0000 0.74794  0.01390  0.87251  Biso   1.000  O
  O65      1.0000 0.69118  0.07066  0.53591  Biso   1.000  O
  O66      1.0000 0.74794  0.01390  0.47915  Biso   1.000  O
  O67      1.0000 0.41134  0.35050  0.81575  Biso   1.000  O
  O68      1.0000 0.35458  0.40726  0.87251  Biso   1.000  O
  O69      1.0000 0.19790  0.56842  0.03367  Biso   1.000  O
  O70      1.0000 0.25465  0.51166  0.97692  Biso   1.000  O
  O71      1.0000 0.91805  0.84826  0.31352  Biso   1.000  O
  O72      1.0000 0.86130  0.90502  0.37027  Biso   1.000  O
  O73      1.0000 0.19790  0.56842  0.31352  Biso   1.000  O
  O74      1.0000 0.25465  0.51166  0.37027  Biso   1.000  O
  O75      1.0000 0.91805  0.84826  0.03367  Biso   1.000  O
  O76      1.0000 0.86130  0.90502  0.97692  Biso   1.000  O
  O77      1.0000 0.91805  0.56842  0.31352  Biso   1.000  O
  O78      1.0000 0.86130  0.51166  0.37027  Biso   1.000  O
  O79      1.0000 0.19790  0.84826  0.03367  Biso   1.000  O
  O80      1.0000 0.25465  0.90502  0.97692  Biso   1.000  O
  O81      1.0000 0.55126  0.21058  0.67583  Biso   1.000  O
  O82      1.0000 0.05798  0.70834  0.17359  Biso   1.000  O
  O83      1.0000 0.49632  0.03309  0.79205  Biso   1.000  O
  O84      1.0000 0.66748  0.32680  0.62089  Biso   1.000  O
  O85      1.0000 0.37377  0.15563  0.79205  Biso   1.000  O
  O86      1.0000 0.66748  0.32680  0.49834  Biso   1.000  O
  O87      1.0000 0.37377  0.32680  0.62089  Biso   1.000  O
  O88      1.0000 0.66748  0.15563  0.79205  Biso   1.000  O
  O89      1.0000 0.49632  0.32680  0.49834  Biso   1.000  O
  O90      1.0000 0.66748  0.03309  0.79205  Biso   1.000  O
  O91      1.0000 0.66748  0.15563  0.49834  Biso   1.000  O
  O92      1.0000 0.49632  0.32680  0.79205  Biso   1.000  O
  O93      1.0000 0.66748  0.03309  0.62089  Biso   1.000  O
  O94      1.0000 0.37377  0.32680  0.79205  Biso   1.000  O
  O95      1.0000 0.11292  0.59212  0.05737  Biso   1.000  O
  O96      1.0000 0.94176  0.88583  0.22854  Biso   1.000  O
  O97      1.0000 0.23547  0.59212  0.05737  Biso   1.000  O
  O98      1.0000 0.94176  0.76328  0.35108  Biso   1.000  O
  O99      1.0000 0.23547  0.59212  0.22854  Biso   1.000  O
  O100     1.0000 0.94176  0.88583  0.05737  Biso   1.000  O
  O101     1.0000 0.11292  0.59212  0.35108  Biso   1.000  O
  O102     1.0000 0.94176  0.76328  0.05737  Biso   1.000  O
  O103     1.0000 0.94176  0.59212  0.35108  Biso   1.000  O
  O104     1.0000 0.11292  0.88583  0.05737  Biso   1.000  O
  O105     1.0000 0.94176  0.59212  0.22854  Biso   1.000  O
  O106     1.0000 0.23547  0.76328  0.05737  Biso   1.000  O
