data_image0
_cell_length_a       18.2789
_cell_length_b       18.2789
_cell_length_c       18.2789
_cell_angle_alpha    60
_cell_angle_beta     60
_cell_angle_gamma    60

_symmetry_space_group_name_H-M    "P 1"
_symmetry_int_tables_number       1

loop_
  _symmetry_equiv_pos_as_xyz
  'x, y, z'

loop_
  _atom_site_label
  _atom_site_occupancy
  _atom_site_fract_x
  _atom_site_fract_y
  _atom_site_fract_z
  _atom_site_thermal_displace_type
  _atom_site_B_iso_or_equiv
  _atom_site_type_symbol
  Zn1      1.0000 0.29348  0.29347  0.11958  Biso   1.000  Zn
  Zn2      1.0000 0.29348  0.29347  0.29347  Biso   1.000  Zn
  Zn3      1.0000 0.11959  0.29347  0.29347  Biso   1.000  Zn
  Zn4      1.0000 0.29348  0.11958  0.29347  Biso   1.000  Zn
  Zn5      1.0000 0.70652  0.70653  0.88042  Biso   1.000  Zn
  Zn6      1.0000 0.70652  0.70653  0.70653  Biso   1.000  Zn
  Zn7      1.0000 0.70652  0.88042  0.70653  Biso   1.000  Zn
  Zn8      1.0000 0.88041  0.70653  0.70653  Biso   1.000  Zn
  H1       1.0000 0.45520  0.45520  0.93520  Biso   1.000  H
  H2       1.0000 0.45520  0.45520  0.15440  Biso   1.000  H
  H3       1.0000 0.93520  0.15440  0.45520  Biso   1.000  H
  H4       1.0000 0.15440  0.93520  0.45520  Biso   1.000  H
  H5       1.0000 0.45520  0.93520  0.15440  Biso   1.000  H
  H6       1.0000 0.45520  0.15440  0.93520  Biso   1.000  H
  H7       1.0000 0.93520  0.45520  0.45520  Biso   1.000  H
  H8       1.0000 0.15440  0.45520  0.45520  Biso   1.000  H
  H9       1.0000 0.45520  0.15440  0.45520  Biso   1.000  H
  H10      1.0000 0.45520  0.93520  0.45520  Biso   1.000  H
  H11      1.0000 0.93520  0.45520  0.15440  Biso   1.000  H
  H12      1.0000 0.15440  0.45520  0.93520  Biso   1.000  H
  H13      1.0000 0.54480  0.54480  0.06480  Biso   1.000  H
  H14      1.0000 0.54480  0.54480  0.84560  Biso   1.000  H
  H15      1.0000 0.84560  0.06480  0.54480  Biso   1.000  H
  H16      1.0000 0.06480  0.84560  0.54480  Biso   1.000  H
  H17      1.0000 0.06480  0.54480  0.84560  Biso   1.000  H
  H18      1.0000 0.84560  0.54480  0.06480  Biso   1.000  H
  H19      1.0000 0.54480  0.06480  0.54480  Biso   1.000  H
  H20      1.0000 0.54480  0.84560  0.54480  Biso   1.000  H
  H21      1.0000 0.84560  0.54480  0.54480  Biso   1.000  H
  H22      1.0000 0.06480  0.54480  0.54480  Biso   1.000  H
  H23      1.0000 0.54480  0.06480  0.84560  Biso   1.000  H
  H24      1.0000 0.54480  0.84560  0.06480  Biso   1.000  H
  C1       1.0000 0.47338  0.47338  0.96214  Biso   1.000  C
  C2       1.0000 0.47338  0.47338  0.09110  Biso   1.000  C
  C3       1.0000 0.96214  0.09110  0.47338  Biso   1.000  C
  C4       1.0000 0.09110  0.96214  0.47338  Biso   1.000  C
  C5       1.0000 0.47338  0.96214  0.09110  Biso   1.000  C
  C6       1.0000 0.47338  0.09110  0.96214  Biso   1.000  C
  C7       1.0000 0.96214  0.47338  0.47338  Biso   1.000  C
  C8       1.0000 0.09110  0.47338  0.47338  Biso   1.000  C
  C9       1.0000 0.47338  0.09110  0.47338  Biso   1.000  C
  C10      1.0000 0.47338  0.96214  0.47338  Biso   1.000  C
  C11      1.0000 0.96214  0.47338  0.09110  Biso   1.000  C
  C12      1.0000 0.09110  0.47338  0.96214  Biso   1.000  C
  C13      1.0000 0.52662  0.52662  0.03786  Biso   1.000  C
  C14      1.0000 0.52662  0.52662  0.90890  Biso   1.000  C
  C15      1.0000 0.90890  0.03786  0.52662  Biso   1.000  C
  C16      1.0000 0.03786  0.90890  0.52662  Biso   1.000  C
  C17      1.0000 0.03786  0.52662  0.90890  Biso   1.000  C
  C18      1.0000 0.90890  0.52662  0.03786  Biso   1.000  C
  C19      1.0000 0.52662  0.03786  0.52662  Biso   1.000  C
  C20      1.0000 0.52662  0.90890  0.52662  Biso   1.000  C
  C21      1.0000 0.90890  0.52662  0.52662  Biso   1.000  C
  C22      1.0000 0.03786  0.52662  0.52662  Biso   1.000  C
  C23      1.0000 0.52662  0.03786  0.90890  Biso   1.000  C
  C24      1.0000 0.52662  0.90890  0.03786  Biso   1.000  C
  C25      1.0000 0.38853  0.38853  0.11147  Biso   1.000  C
  C26      1.0000 0.44615  0.44615  0.05385  Biso   1.000  C
  C27      1.0000 0.11147  0.11147  0.38853  Biso   1.000  C
  C28      1.0000 0.05385  0.05385  0.44615  Biso   1.000  C
  C29      1.0000 0.38853  0.11147  0.11147  Biso   1.000  C
  C30      1.0000 0.44615  0.05385  0.05385  Biso   1.000  C
  C31      1.0000 0.11147  0.38853  0.38853  Biso   1.000  C
  C32      1.0000 0.05385  0.44615  0.44615  Biso   1.000  C
  C33      1.0000 0.38853  0.11147  0.38853  Biso   1.000  C
  C34      1.0000 0.44615  0.05385  0.44615  Biso   1.000  C
  C35      1.0000 0.11147  0.38853  0.11147  Biso   1.000  C
  C36      1.0000 0.05385  0.44615  0.05385  Biso   1.000  C
  C37      1.0000 0.61147  0.61147  0.88853  Biso   1.000  C
  C38      1.0000 0.55385  0.55385  0.94615  Biso   1.000  C
  C39      1.0000 0.88853  0.88853  0.61147  Biso   1.000  C
  C40      1.0000 0.94615  0.94615  0.55385  Biso   1.000  C
  C41      1.0000 0.88853  0.61147  0.88853  Biso   1.000  C
  C42      1.0000 0.94615  0.55385  0.94615  Biso   1.000  C
  C43      1.0000 0.61147  0.88853  0.61147  Biso   1.000  C
  C44      1.0000 0.55385  0.94615  0.55385  Biso   1.000  C
  C45      1.0000 0.88853  0.61147  0.61147  Biso   1.000  C
  C46      1.0000 0.94615  0.55385  0.55385  Biso   1.000  C
  C47      1.0000 0.61147  0.88853  0.88853  Biso   1.000  C
  C48      1.0000 0.55385  0.94615  0.94615  Biso   1.000  C
  O1       1.0000 0.25000  0.25000  0.25000  Biso   1.000  O
  O2       1.0000 0.75000  0.75000  0.75000  Biso   1.000  O
  O3       1.0000 0.36624  0.36624  0.07286  Biso   1.000  O
  O4       1.0000 0.36624  0.36624  0.19466  Biso   1.000  O
  O5       1.0000 0.07286  0.19466  0.36624  Biso   1.000  O
  O6       1.0000 0.19466  0.07286  0.36624  Biso   1.000  O
  O7       1.0000 0.36624  0.07286  0.19466  Biso   1.000  O
  O8       1.0000 0.36624  0.19466  0.07286  Biso   1.000  O
  O9       1.0000 0.07286  0.36624  0.36624  Biso   1.000  O
  O10      1.0000 0.19466  0.36624  0.36624  Biso   1.000  O
  O11      1.0000 0.36624  0.19466  0.36624  Biso   1.000  O
  O12      1.0000 0.36624  0.07286  0.36624  Biso   1.000  O
  O13      1.0000 0.07286  0.36624  0.19466  Biso   1.000  O
  O14      1.0000 0.19466  0.36624  0.07286  Biso   1.000  O
  O15      1.0000 0.63376  0.63376  0.92714  Biso   1.000  O
  O16      1.0000 0.63376  0.63376  0.80534  Biso   1.000  O
  O17      1.0000 0.80534  0.92714  0.63376  Biso   1.000  O
  O18      1.0000 0.92714  0.80534  0.63376  Biso   1.000  O
  O19      1.0000 0.92714  0.63376  0.80534  Biso   1.000  O
  O20      1.0000 0.80534  0.63376  0.92714  Biso   1.000  O
  O21      1.0000 0.63376  0.92714  0.63376  Biso   1.000  O
  O22      1.0000 0.63376  0.80534  0.63376  Biso   1.000  O
  O23      1.0000 0.80534  0.63376  0.63376  Biso   1.000  O
  O24      1.0000 0.92714  0.63376  0.63376  Biso   1.000  O
  O25      1.0000 0.63376  0.92714  0.80534  Biso   1.000  O
  O26      1.0000 0.63376  0.80534  0.92714  Biso   1.000  O
  Zn9      1.0000 0.57623  0.42374  0.42372  Biso   1.000  Zn
  Zn10     1.0000 0.13278  0.84768  0.01926  Biso   1.000  Zn
  Zn11     1.0000 0.13278  0.01947  0.01926  Biso   1.000  Zn
  Zn12     1.0000 0.57624  0.59554  0.42372  Biso   1.000  Zn
  Zn13     1.0000 0.57620  0.42367  0.59573  Biso   1.000  Zn
  Zn14     1.0000 0.74781  0.42392  0.42359  Biso   1.000  Zn
  Zn15     1.0000 0.13282  0.01955  0.84725  Biso   1.000  Zn
  Zn16     1.0000 0.96120  0.01930  0.01939  Biso   1.000  Zn
  H25      1.0000 0.39410  0.26870  0.79624  Biso   1.000  H
  H26      1.0000 0.39316  0.27023  0.55867  Biso   1.000  H
  H27      1.0000 0.39030  0.55873  0.27102  Biso   1.000  H
  H28      1.0000 0.31491  0.88309  0.64674  Biso   1.000  H
  H29      1.0000 0.31585  0.64602  0.88431  Biso   1.000  H
  H30      1.0000 0.31871  0.64405  0.17196  Biso   1.000  H
  H31      1.0000 0.31491  0.17452  0.64674  Biso   1.000  H
  H32      1.0000 0.31585  0.17299  0.88431  Biso   1.000  H
  H33      1.0000 0.31871  0.88449  0.17196  Biso   1.000  H
  H34      1.0000 0.39410  0.56013  0.79624  Biso   1.000  H
  H35      1.0000 0.39316  0.79720  0.55867  Biso   1.000  H
  H36      1.0000 0.39030  0.79917  0.27102  Biso   1.000  H
  C49      1.0000 0.48995  0.33651  0.60015  Biso   1.000  C
  C50      1.0000 0.42661  0.27267  0.65880  Biso   1.000  C
  C51      1.0000 0.37860  0.24752  0.77016  Biso   1.000  C
  C52      1.0000 0.37865  0.24895  0.62124  Biso   1.000  C
  C53      1.0000 0.74871  0.33712  0.33722  Biso   1.000  C
  C54      1.0000 0.37706  0.62119  0.24758  Biso   1.000  C
  C55      1.0000 0.21906  0.85058  0.84283  Biso   1.000  C
  C56      1.0000 0.28240  0.78204  0.78418  Biso   1.000  C
  C57      1.0000 0.33041  0.82033  0.67283  Biso   1.000  C
  C58      1.0000 0.33036  0.67279  0.82174  Biso   1.000  C
  C59      1.0000 0.96030  0.84703  0.10576  Biso   1.000  C
  C60      1.0000 0.33195  0.66983  0.19540  Biso   1.000  C
  C61      1.0000 0.21906  0.10671  0.84283  Biso   1.000  C
  C62      1.0000 0.28240  0.17054  0.78418  Biso   1.000  C
  C63      1.0000 0.33041  0.19570  0.67283  Biso   1.000  C
  C64      1.0000 0.33036  0.19427  0.82174  Biso   1.000  C
  C65      1.0000 0.96030  0.10610  0.10576  Biso   1.000  C
  C66      1.0000 0.33195  0.82202  0.19540  Biso   1.000  C
  C67      1.0000 0.48995  0.59264  0.60015  Biso   1.000  C
  C68      1.0000 0.42661  0.66118  0.65880  Biso   1.000  C
  C69      1.0000 0.37860  0.62289  0.77016  Biso   1.000  C
  C70      1.0000 0.37865  0.77042  0.62124  Biso   1.000  C
  C71      1.0000 0.74871  0.59618  0.33722  Biso   1.000  C
  C72      1.0000 0.37706  0.77339  0.24758  Biso   1.000  C
  C73      1.0000 0.74677  0.33622  0.60006  Biso   1.000  C
  C74      1.0000 0.48661  0.59726  0.33810  Biso   1.000  C
  C75      1.0000 0.42639  0.66140  0.27004  Biso   1.000  C
  C76      1.0000 0.96224  0.10700  0.84293  Biso   1.000  C
  C77      1.0000 0.22240  0.84596  0.10488  Biso   1.000  C
  C78      1.0000 0.28262  0.78182  0.17295  Biso   1.000  C
  O27      1.0000 0.50721  0.35259  0.64350  Biso   1.000  O
  O28      1.0000 0.50525  0.35181  0.51836  Biso   1.000  O
  O29      1.0000 0.79735  0.35241  0.35330  Biso   1.000  O
  O30      1.0000 0.66860  0.35222  0.35320  Biso   1.000  O
  O31      1.0000 0.50602  0.51666  0.35164  Biso   1.000  O
  O32      1.0000 0.20180  0.92726  0.79948  Biso   1.000  O
  O33      1.0000 0.20376  0.79939  0.92462  Biso   1.000  O
  O34      1.0000 0.91166  0.92705  0.08968  Biso   1.000  O
  O35      1.0000 0.04041  0.79801  0.08978  Biso   1.000  O
  O36      1.0000 0.20299  0.79830  0.09135  Biso   1.000  O
  O37      1.0000 0.20180  0.09063  0.79948  Biso   1.000  O
  O38      1.0000 0.20376  0.09140  0.92462  Biso   1.000  O
  O39      1.0000 0.91166  0.09081  0.08968  Biso   1.000  O
  O40      1.0000 0.04041  0.09100  0.08978  Biso   1.000  O
  O41      1.0000 0.20299  0.92656  0.09135  Biso   1.000  O
  O42      1.0000 0.50721  0.51596  0.64350  Biso   1.000  O
  O43      1.0000 0.50525  0.64383  0.51836  Biso   1.000  O
  O44      1.0000 0.79735  0.51617  0.35330  Biso   1.000  O
  O45      1.0000 0.66860  0.64521  0.35320  Biso   1.000  O
  O46      1.0000 0.50602  0.64492  0.35164  Biso   1.000  O
  O47      1.0000 0.61772  0.46802  0.46550  Biso   1.000  O
  O48      1.0000 0.66891  0.35269  0.64497  Biso   1.000  O
  O49      1.0000 0.79707  0.35279  0.51660  Biso   1.000  O
  O50      1.0000 0.09130  0.97520  0.97748  Biso   1.000  O
  O51      1.0000 0.04010  0.09053  0.79801  Biso   1.000  O
  O52      1.0000 0.91195  0.09042  0.92639  Biso   1.000  O
