data_image0
_cell_length_a       18.255
_cell_length_b       18.255
_cell_length_c       18.255
_cell_angle_alpha    60
_cell_angle_beta     60
_cell_angle_gamma    60

_symmetry_space_group_name_H-M    "P 1"
_symmetry_int_tables_number       1

loop_
  _symmetry_equiv_pos_as_xyz
  'x, y, z'

loop_
  _atom_site_label
  _atom_site_occupancy
  _atom_site_fract_x
  _atom_site_fract_y
  _atom_site_fract_z
  _atom_site_thermal_displace_type
  _atom_site_B_iso_or_equiv
  _atom_site_type_symbol
  Zn1      1.0000 0.29354  0.29354  0.11938  Biso   1.000  Zn
  Zn2      1.0000 0.29354  0.29354  0.29354  Biso   1.000  Zn
  Zn3      1.0000 0.11938  0.29354  0.29354  Biso   1.000  Zn
  Zn4      1.0000 0.29354  0.11938  0.29354  Biso   1.000  Zn
  Zn5      1.0000 0.70646  0.70646  0.88062  Biso   1.000  Zn
  Zn6      1.0000 0.70646  0.70646  0.70646  Biso   1.000  Zn
  Zn7      1.0000 0.70646  0.88062  0.70646  Biso   1.000  Zn
  Zn8      1.0000 0.88062  0.70646  0.70646  Biso   1.000  Zn
  H1       1.0000 0.45570  0.45570  0.93630  Biso   1.000  H
  H2       1.0000 0.45570  0.45570  0.15230  Biso   1.000  H
  H3       1.0000 0.93630  0.15230  0.45570  Biso   1.000  H
  H4       1.0000 0.15230  0.93630  0.45570  Biso   1.000  H
  H5       1.0000 0.45570  0.93630  0.15230  Biso   1.000  H
  H6       1.0000 0.45570  0.15230  0.93630  Biso   1.000  H
  H7       1.0000 0.93630  0.45570  0.45570  Biso   1.000  H
  H8       1.0000 0.15230  0.45570  0.45570  Biso   1.000  H
  H9       1.0000 0.45570  0.15230  0.45570  Biso   1.000  H
  H10      1.0000 0.45570  0.93630  0.45570  Biso   1.000  H
  H11      1.0000 0.93630  0.45570  0.15230  Biso   1.000  H
  H12      1.0000 0.15230  0.45570  0.93630  Biso   1.000  H
  H13      1.0000 0.54430  0.54430  0.06370  Biso   1.000  H
  H14      1.0000 0.54430  0.54430  0.84770  Biso   1.000  H
  H15      1.0000 0.84770  0.06370  0.54430  Biso   1.000  H
  H16      1.0000 0.06370  0.84770  0.54430  Biso   1.000  H
  H17      1.0000 0.06370  0.54430  0.84770  Biso   1.000  H
  H18      1.0000 0.84770  0.54430  0.06370  Biso   1.000  H
  H19      1.0000 0.54430  0.06370  0.54430  Biso   1.000  H
  H20      1.0000 0.54430  0.84770  0.54430  Biso   1.000  H
  H21      1.0000 0.84770  0.54430  0.54430  Biso   1.000  H
  H22      1.0000 0.06370  0.54430  0.54430  Biso   1.000  H
  H23      1.0000 0.54430  0.06370  0.84770  Biso   1.000  H
  H24      1.0000 0.54430  0.84770  0.06370  Biso   1.000  H
  C1       1.0000 0.47332  0.47332  0.96310  Biso   1.000  C
  C2       1.0000 0.47332  0.47332  0.09026  Biso   1.000  C
  C3       1.0000 0.96310  0.09026  0.47332  Biso   1.000  C
  C4       1.0000 0.09026  0.96310  0.47332  Biso   1.000  C
  C5       1.0000 0.47332  0.96310  0.09026  Biso   1.000  C
  C6       1.0000 0.47332  0.09026  0.96310  Biso   1.000  C
  C7       1.0000 0.96310  0.47332  0.47332  Biso   1.000  C
  C8       1.0000 0.09026  0.47332  0.47332  Biso   1.000  C
  C9       1.0000 0.47332  0.09026  0.47332  Biso   1.000  C
  C10      1.0000 0.47332  0.96310  0.47332  Biso   1.000  C
  C11      1.0000 0.96310  0.47332  0.09026  Biso   1.000  C
  C12      1.0000 0.09026  0.47332  0.96310  Biso   1.000  C
  C13      1.0000 0.52668  0.52668  0.03690  Biso   1.000  C
  C14      1.0000 0.52668  0.52668  0.90974  Biso   1.000  C
  C15      1.0000 0.90974  0.03690  0.52668  Biso   1.000  C
  C16      1.0000 0.03690  0.90974  0.52668  Biso   1.000  C
  C17      1.0000 0.03690  0.52668  0.90974  Biso   1.000  C
  C18      1.0000 0.90974  0.52668  0.03690  Biso   1.000  C
  C19      1.0000 0.52668  0.03690  0.52668  Biso   1.000  C
  C20      1.0000 0.52668  0.90974  0.52668  Biso   1.000  C
  C21      1.0000 0.90974  0.52668  0.52668  Biso   1.000  C
  C22      1.0000 0.03690  0.52668  0.52668  Biso   1.000  C
  C23      1.0000 0.52668  0.03690  0.90974  Biso   1.000  C
  C24      1.0000 0.52668  0.90974  0.03690  Biso   1.000  C
  C25      1.0000 0.38870  0.38870  0.11130  Biso   1.000  C
  C26      1.0000 0.44580  0.44580  0.05420  Biso   1.000  C
  C27      1.0000 0.11130  0.11130  0.38870  Biso   1.000  C
  C28      1.0000 0.05420  0.05420  0.44580  Biso   1.000  C
  C29      1.0000 0.38870  0.11130  0.11130  Biso   1.000  C
  C30      1.0000 0.44580  0.05420  0.05420  Biso   1.000  C
  C31      1.0000 0.11130  0.38870  0.38870  Biso   1.000  C
  C32      1.0000 0.05420  0.44580  0.44580  Biso   1.000  C
  C33      1.0000 0.38870  0.11130  0.38870  Biso   1.000  C
  C34      1.0000 0.44580  0.05420  0.44580  Biso   1.000  C
  C35      1.0000 0.11130  0.38870  0.11130  Biso   1.000  C
  C36      1.0000 0.05420  0.44580  0.05420  Biso   1.000  C
  C37      1.0000 0.61130  0.61130  0.88870  Biso   1.000  C
  C38      1.0000 0.55420  0.55420  0.94580  Biso   1.000  C
  C39      1.0000 0.88870  0.88870  0.61130  Biso   1.000  C
  C40      1.0000 0.94580  0.94580  0.55420  Biso   1.000  C
  C41      1.0000 0.88870  0.61130  0.88870  Biso   1.000  C
  C42      1.0000 0.94580  0.55420  0.94580  Biso   1.000  C
  C43      1.0000 0.61130  0.88870  0.61130  Biso   1.000  C
  C44      1.0000 0.55420  0.94580  0.55420  Biso   1.000  C
  C45      1.0000 0.88870  0.61130  0.61130  Biso   1.000  C
  C46      1.0000 0.94580  0.55420  0.55420  Biso   1.000  C
  C47      1.0000 0.61130  0.88870  0.88870  Biso   1.000  C
  C48      1.0000 0.55420  0.94580  0.94580  Biso   1.000  C
  O1       1.0000 0.25000  0.25000  0.25000  Biso   1.000  O
  O2       1.0000 0.75000  0.75000  0.75000  Biso   1.000  O
  O3       1.0000 0.36613  0.36613  0.07303  Biso   1.000  O
  O4       1.0000 0.36613  0.36613  0.19471  Biso   1.000  O
  O5       1.0000 0.07303  0.19471  0.36613  Biso   1.000  O
  O6       1.0000 0.19471  0.07303  0.36613  Biso   1.000  O
  O7       1.0000 0.36613  0.07303  0.19471  Biso   1.000  O
  O8       1.0000 0.36613  0.19471  0.07303  Biso   1.000  O
  O9       1.0000 0.07303  0.36613  0.36613  Biso   1.000  O
  O10      1.0000 0.19471  0.36613  0.36613  Biso   1.000  O
  O11      1.0000 0.36613  0.19471  0.36613  Biso   1.000  O
  O12      1.0000 0.36613  0.07303  0.36613  Biso   1.000  O
  O13      1.0000 0.07303  0.36613  0.19471  Biso   1.000  O
  O14      1.0000 0.19471  0.36613  0.07303  Biso   1.000  O
  O15      1.0000 0.63387  0.63387  0.92697  Biso   1.000  O
  O16      1.0000 0.63387  0.63387  0.80529  Biso   1.000  O
  O17      1.0000 0.80529  0.92697  0.63387  Biso   1.000  O
  O18      1.0000 0.92697  0.80529  0.63387  Biso   1.000  O
  O19      1.0000 0.92697  0.63387  0.80529  Biso   1.000  O
  O20      1.0000 0.80529  0.63387  0.92697  Biso   1.000  O
  O21      1.0000 0.63387  0.92697  0.63387  Biso   1.000  O
  O22      1.0000 0.63387  0.80529  0.63387  Biso   1.000  O
  O23      1.0000 0.80529  0.63387  0.63387  Biso   1.000  O
  O24      1.0000 0.92697  0.63387  0.63387  Biso   1.000  O
  O25      1.0000 0.63387  0.92697  0.80529  Biso   1.000  O
  O26      1.0000 0.63387  0.80529  0.92697  Biso   1.000  O
  Zn9      1.0000 0.59554  0.07879  0.71893  Biso   1.000  Zn
  Zn10     1.0000 0.59554  0.25318  0.71893  Biso   1.000  Zn
  Zn11     1.0000 0.42115  0.25318  0.71893  Biso   1.000  Zn
  Zn12     1.0000 0.59554  0.25318  0.54455  Biso   1.000  Zn
  Zn13     1.0000 0.01679  0.66318  0.12893  Biso   1.000  Zn
  Zn14     1.0000 0.01679  0.83756  0.12893  Biso   1.000  Zn
  Zn15     1.0000 0.19118  0.66318  0.12893  Biso   1.000  Zn
  Zn16     1.0000 0.01679  0.66318  0.30332  Biso   1.000  Zn
  H25      1.0000 0.45742  0.89221  0.88129  Biso   1.000  H
  H26      1.0000 0.75790  0.41554  0.58081  Biso   1.000  H
  H27      1.0000 0.23457  0.11506  0.88129  Biso   1.000  H
  H28      1.0000 0.75790  0.41554  0.35796  Biso   1.000  H
  H29      1.0000 0.23457  0.41554  0.58081  Biso   1.000  H
  H30      1.0000 0.75790  0.11506  0.88129  Biso   1.000  H
  H31      1.0000 0.45742  0.41554  0.35796  Biso   1.000  H
  H32      1.0000 0.75790  0.89221  0.88129  Biso   1.000  H
  H33      1.0000 0.75790  0.11506  0.35796  Biso   1.000  H
  H34      1.0000 0.45742  0.41554  0.88129  Biso   1.000  H
  H35      1.0000 0.75790  0.89221  0.58081  Biso   1.000  H
  H36      1.0000 0.23457  0.41554  0.88129  Biso   1.000  H
  H37      1.0000 0.15492  0.50082  0.96657  Biso   1.000  H
  H38      1.0000 0.85443  0.02415  0.26705  Biso   1.000  H
  H39      1.0000 0.37776  0.50082  0.96657  Biso   1.000  H
  H40      1.0000 0.85443  0.80130  0.48990  Biso   1.000  H
  H41      1.0000 0.37776  0.50082  0.26705  Biso   1.000  H
  H42      1.0000 0.85443  0.02415  0.96657  Biso   1.000  H
  H43      1.0000 0.15492  0.50082  0.48990  Biso   1.000  H
  H44      1.0000 0.85443  0.80130  0.96657  Biso   1.000  H
  H45      1.0000 0.85443  0.50082  0.48990  Biso   1.000  H
  H46      1.0000 0.15492  0.02415  0.96657  Biso   1.000  H
  H47      1.0000 0.85443  0.50082  0.26705  Biso   1.000  H
  H48      1.0000 0.37776  0.80130  0.96657  Biso   1.000  H
  C49      1.0000 0.39377  0.91891  0.89976  Biso   1.000  C
  C50      1.0000 0.77637  0.43401  0.51716  Biso   1.000  C
  C51      1.0000 0.26127  0.05141  0.89976  Biso   1.000  C
  C52      1.0000 0.77637  0.43401  0.38466  Biso   1.000  C
  C53      1.0000 0.26127  0.43401  0.51716  Biso   1.000  C
  C54      1.0000 0.77637  0.05141  0.89976  Biso   1.000  C
  C55      1.0000 0.39377  0.43401  0.38466  Biso   1.000  C
  C56      1.0000 0.77637  0.91891  0.89976  Biso   1.000  C
  C57      1.0000 0.77637  0.05141  0.38466  Biso   1.000  C
  C58      1.0000 0.39377  0.43401  0.89976  Biso   1.000  C
  C59      1.0000 0.77637  0.91891  0.51716  Biso   1.000  C
  C60      1.0000 0.26127  0.43401  0.89976  Biso   1.000  C
  C61      1.0000 0.21856  0.48234  0.94810  Biso   1.000  C
  C62      1.0000 0.83596  0.99745  0.33070  Biso   1.000  C
  C63      1.0000 0.35106  0.48234  0.94810  Biso   1.000  C
  C64      1.0000 0.83596  0.86495  0.46320  Biso   1.000  C
  C65      1.0000 0.35106  0.48234  0.33070  Biso   1.000  C
  C66      1.0000 0.83596  0.99745  0.94810  Biso   1.000  C
  C67      1.0000 0.21856  0.48234  0.46320  Biso   1.000  C
  C68      1.0000 0.83596  0.86495  0.94810  Biso   1.000  C
  C69      1.0000 0.83596  0.48234  0.46320  Biso   1.000  C
  C70      1.0000 0.21856  0.99745  0.94810  Biso   1.000  C
  C71      1.0000 0.83596  0.48234  0.33070  Biso   1.000  C
  C72      1.0000 0.35106  0.86495  0.94810  Biso   1.000  C
  C73      1.0000 0.41260  0.07024  0.81468  Biso   1.000  C
  C74      1.0000 0.35465  0.01229  0.87263  Biso   1.000  C
  C75      1.0000 0.69128  0.34892  0.53600  Biso   1.000  C
  C76      1.0000 0.74924  0.40688  0.47804  Biso   1.000  C
  C77      1.0000 0.41260  0.34892  0.53600  Biso   1.000  C
  C78      1.0000 0.35465  0.40688  0.47804  Biso   1.000  C
  C79      1.0000 0.69128  0.07024  0.81468  Biso   1.000  C
  C80      1.0000 0.74924  0.01229  0.87263  Biso   1.000  C
  C81      1.0000 0.69128  0.07024  0.53600  Biso   1.000  C
  C82      1.0000 0.74924  0.01229  0.47804  Biso   1.000  C
  C83      1.0000 0.41260  0.34892  0.81468  Biso   1.000  C
  C84      1.0000 0.35465  0.40688  0.87263  Biso   1.000  C
  C85      1.0000 0.19973  0.56743  0.03318  Biso   1.000  C
  C86      1.0000 0.25768  0.50948  0.97523  Biso   1.000  C
  C87      1.0000 0.92105  0.84611  0.31186  Biso   1.000  C
  C88      1.0000 0.86309  0.90406  0.36982  Biso   1.000  C
  C89      1.0000 0.19973  0.56743  0.31186  Biso   1.000  C
  C90      1.0000 0.25768  0.50948  0.36982  Biso   1.000  C
  C91      1.0000 0.92105  0.84611  0.03318  Biso   1.000  C
  C92      1.0000 0.86309  0.90406  0.97523  Biso   1.000  C
  C93      1.0000 0.92105  0.56743  0.31186  Biso   1.000  C
  C94      1.0000 0.86309  0.50948  0.36982  Biso   1.000  C
  C95      1.0000 0.19973  0.84611  0.03318  Biso   1.000  C
  C96      1.0000 0.25768  0.90406  0.97523  Biso   1.000  C
  O27      1.0000 0.55194  0.20958  0.67534  Biso   1.000  O
  O28      1.0000 0.06039  0.70677  0.17252  Biso   1.000  O
  O29      1.0000 0.49668  0.03090  0.79231  Biso   1.000  O
  O30      1.0000 0.66892  0.32656  0.62007  Biso   1.000  O
  O31      1.0000 0.37326  0.15432  0.79231  Biso   1.000  O
  O32      1.0000 0.66892  0.32656  0.49666  Biso   1.000  O
  O33      1.0000 0.37326  0.32656  0.62007  Biso   1.000  O
  O34      1.0000 0.66892  0.15432  0.79231  Biso   1.000  O
  O35      1.0000 0.49668  0.32656  0.49666  Biso   1.000  O
  O36      1.0000 0.66892  0.03090  0.79231  Biso   1.000  O
  O37      1.0000 0.66892  0.15432  0.49666  Biso   1.000  O
  O38      1.0000 0.49668  0.32656  0.79231  Biso   1.000  O
  O39      1.0000 0.66892  0.03090  0.62007  Biso   1.000  O
  O40      1.0000 0.37326  0.32656  0.79231  Biso   1.000  O
  O41      1.0000 0.11566  0.58980  0.05555  Biso   1.000  O
  O42      1.0000 0.94341  0.88545  0.22779  Biso   1.000  O
  O43      1.0000 0.23907  0.58980  0.05555  Biso   1.000  O
  O44      1.0000 0.94341  0.76204  0.35120  Biso   1.000  O
  O45      1.0000 0.23907  0.58980  0.22779  Biso   1.000  O
  O46      1.0000 0.94341  0.88545  0.05555  Biso   1.000  O
  O47      1.0000 0.11566  0.58980  0.35120  Biso   1.000  O
  O48      1.0000 0.94341  0.76204  0.05555  Biso   1.000  O
  O49      1.0000 0.94341  0.58980  0.35120  Biso   1.000  O
  O50      1.0000 0.11566  0.88545  0.05555  Biso   1.000  O
  O51      1.0000 0.94341  0.58980  0.22779  Biso   1.000  O
  O52      1.0000 0.23907  0.76204  0.05555  Biso   1.000  O
