data_image0
_cell_length_a       18.3017
_cell_length_b       18.3017
_cell_length_c       18.3017
_cell_angle_alpha    60
_cell_angle_beta     60
_cell_angle_gamma    60

_symmetry_space_group_name_H-M    "P 1"
_symmetry_int_tables_number       1

loop_
  _symmetry_equiv_pos_as_xyz
  'x, y, z'

loop_
  _atom_site_label
  _atom_site_occupancy
  _atom_site_fract_x
  _atom_site_fract_y
  _atom_site_fract_z
  _atom_site_thermal_displace_type
  _atom_site_B_iso_or_equiv
  _atom_site_type_symbol
  C1       1.0000 0.29342  0.29343  0.11972  Biso   1.000  C
  C2       1.0000 0.29343  0.29342  0.29343  Biso   1.000  C
  C3       1.0000 0.11972  0.29343  0.29342  Biso   1.000  C
  C4       1.0000 0.29343  0.11972  0.29343  Biso   1.000  C
  C5       1.0000 0.70657  0.70658  0.88028  Biso   1.000  C
  C6       1.0000 0.70657  0.70658  0.70657  Biso   1.000  C
  C7       1.0000 0.70658  0.88028  0.70657  Biso   1.000  C
  C8       1.0000 0.88029  0.70657  0.70657  Biso   1.000  C
  C9       1.0000 0.45510  0.45510  0.93470  Biso   1.000  C
  C10      1.0000 0.45510  0.45510  0.15510  Biso   1.000  C
  C11      1.0000 0.93470  0.15510  0.45510  Biso   1.000  C
  C12      1.0000 0.15510  0.93470  0.45510  Biso   1.000  C
  C13      1.0000 0.45510  0.93470  0.15510  Biso   1.000  C
  C14      1.0000 0.45510  0.15510  0.93470  Biso   1.000  C
  C15      1.0000 0.93470  0.45510  0.45510  Biso   1.000  C
  C16      1.0000 0.15510  0.45510  0.45510  Biso   1.000  C
  C17      1.0000 0.45510  0.15510  0.45510  Biso   1.000  C
  C18      1.0000 0.45510  0.93470  0.45510  Biso   1.000  C
  C19      1.0000 0.93470  0.45510  0.15510  Biso   1.000  C
  C20      1.0000 0.15510  0.45510  0.93470  Biso   1.000  C
  C21      1.0000 0.54490  0.54490  0.06530  Biso   1.000  C
  C22      1.0000 0.54490  0.54490  0.84490  Biso   1.000  C
  C23      1.0000 0.84490  0.06530  0.54490  Biso   1.000  C
  C24      1.0000 0.06530  0.84490  0.54490  Biso   1.000  C
  C25      1.0000 0.06530  0.54490  0.84490  Biso   1.000  C
  C26      1.0000 0.84490  0.54490  0.06530  Biso   1.000  C
  C27      1.0000 0.54490  0.06530  0.54490  Biso   1.000  C
  C28      1.0000 0.54490  0.84490  0.54490  Biso   1.000  C
  C29      1.0000 0.84490  0.54490  0.54490  Biso   1.000  C
  C30      1.0000 0.06530  0.54490  0.54490  Biso   1.000  C
  C31      1.0000 0.54490  0.06530  0.84490  Biso   1.000  C
  C32      1.0000 0.54490  0.84490  0.06530  Biso   1.000  C
  C33      1.0000 0.47334  0.47334  0.96156  Biso   1.000  C
  C34      1.0000 0.47334  0.47334  0.09176  Biso   1.000  C
  C35      1.0000 0.96156  0.09176  0.47334  Biso   1.000  C
  C36      1.0000 0.09176  0.96156  0.47334  Biso   1.000  C
  C37      1.0000 0.47334  0.96156  0.09176  Biso   1.000  C
  C38      1.0000 0.47334  0.09176  0.96156  Biso   1.000  C
  C39      1.0000 0.96156  0.47334  0.47334  Biso   1.000  C
  C40      1.0000 0.09176  0.47334  0.47334  Biso   1.000  C
  C41      1.0000 0.47334  0.09176  0.47334  Biso   1.000  C
  C42      1.0000 0.47334  0.96156  0.47334  Biso   1.000  C
  C43      1.0000 0.96156  0.47334  0.09176  Biso   1.000  C
  C44      1.0000 0.09176  0.47334  0.96156  Biso   1.000  C
  C45      1.0000 0.52666  0.52666  0.03844  Biso   1.000  C
  C46      1.0000 0.52666  0.52666  0.90824  Biso   1.000  C
  C47      1.0000 0.90824  0.03844  0.52666  Biso   1.000  C
  C48      1.0000 0.03844  0.90824  0.52666  Biso   1.000  C
  C49      1.0000 0.03844  0.52666  0.90824  Biso   1.000  C
  C50      1.0000 0.90824  0.52666  0.03844  Biso   1.000  C
  C51      1.0000 0.52666  0.03844  0.52666  Biso   1.000  C
  C52      1.0000 0.52666  0.90824  0.52666  Biso   1.000  C
  C53      1.0000 0.90824  0.52666  0.52666  Biso   1.000  C
  C54      1.0000 0.03844  0.52666  0.52666  Biso   1.000  C
  C55      1.0000 0.52666  0.03844  0.90824  Biso   1.000  C
  C56      1.0000 0.52666  0.90824  0.03844  Biso   1.000  C
  C57      1.0000 0.38843  0.38843  0.11157  Biso   1.000  C
  C58      1.0000 0.44642  0.44642  0.05358  Biso   1.000  C
  C59      1.0000 0.11157  0.11157  0.38843  Biso   1.000  C
  C60      1.0000 0.05358  0.05358  0.44642  Biso   1.000  C
  C61      1.0000 0.38843  0.11157  0.11157  Biso   1.000  C
  C62      1.0000 0.44642  0.05358  0.05358  Biso   1.000  C
  C63      1.0000 0.11157  0.38843  0.38843  Biso   1.000  C
  C64      1.0000 0.05358  0.44642  0.44642  Biso   1.000  C
  C65      1.0000 0.38843  0.11157  0.38843  Biso   1.000  C
  C66      1.0000 0.44642  0.05358  0.44642  Biso   1.000  C
  C67      1.0000 0.11157  0.38843  0.11157  Biso   1.000  C
  C68      1.0000 0.05358  0.44642  0.05358  Biso   1.000  C
  C69      1.0000 0.61157  0.61157  0.88843  Biso   1.000  C
  C70      1.0000 0.55358  0.55358  0.94642  Biso   1.000  C
  C71      1.0000 0.88843  0.88843  0.61157  Biso   1.000  C
  C72      1.0000 0.94642  0.94642  0.55358  Biso   1.000  C
  C73      1.0000 0.88843  0.61157  0.88843  Biso   1.000  C
  C74      1.0000 0.94642  0.55358  0.94642  Biso   1.000  C
  C75      1.0000 0.61157  0.88843  0.61157  Biso   1.000  C
  C76      1.0000 0.55358  0.94642  0.55358  Biso   1.000  C
  C77      1.0000 0.88843  0.61157  0.61157  Biso   1.000  C
  C78      1.0000 0.94642  0.55358  0.55358  Biso   1.000  C
  C79      1.0000 0.61157  0.88843  0.88843  Biso   1.000  C
  C80      1.0000 0.55358  0.94642  0.94642  Biso   1.000  C
  C81      1.0000 0.25000  0.25000  0.25000  Biso   1.000  C
  C82      1.0000 0.75000  0.75000  0.75000  Biso   1.000  C
  C83      1.0000 0.36609  0.36609  0.07295  Biso   1.000  C
  C84      1.0000 0.36609  0.36609  0.19487  Biso   1.000  C
  C85      1.0000 0.07295  0.19487  0.36609  Biso   1.000  C
  C86      1.0000 0.19487  0.07295  0.36609  Biso   1.000  C
  C87      1.0000 0.36609  0.07295  0.19487  Biso   1.000  C
  C88      1.0000 0.36609  0.19487  0.07295  Biso   1.000  C
  C89      1.0000 0.07295  0.36609  0.36609  Biso   1.000  C
  C90      1.0000 0.19487  0.36609  0.36609  Biso   1.000  C
  C91      1.0000 0.36609  0.19487  0.36609  Biso   1.000  C
  C92      1.0000 0.36609  0.07295  0.36609  Biso   1.000  C
  C93      1.0000 0.07295  0.36609  0.19487  Biso   1.000  C
  C94      1.0000 0.19487  0.36609  0.07295  Biso   1.000  C
  C95      1.0000 0.63391  0.63391  0.92705  Biso   1.000  C
  C96      1.0000 0.63391  0.63391  0.80513  Biso   1.000  C
  C97      1.0000 0.80513  0.92705  0.63391  Biso   1.000  C
  C98      1.0000 0.92705  0.80513  0.63391  Biso   1.000  C
  C99      1.0000 0.92705  0.63391  0.80513  Biso   1.000  C
  C100     1.0000 0.80513  0.63391  0.92705  Biso   1.000  C
  C101     1.0000 0.63391  0.92705  0.63391  Biso   1.000  C
  C102     1.0000 0.63391  0.80513  0.63391  Biso   1.000  C
  C103     1.0000 0.80513  0.63391  0.63391  Biso   1.000  C
  C104     1.0000 0.92705  0.63391  0.63391  Biso   1.000  C
  C105     1.0000 0.63391  0.92705  0.80513  Biso   1.000  C
  C106     1.0000 0.63391  0.80513  0.92705  Biso   1.000  C
  O1       1.0000 0.50091  0.51838  0.33395  Biso   1.000  O
  O2       1.0000 0.50091  0.51838  0.50736  Biso   1.000  O
  O3       1.0000 0.32749  0.51838  0.50736  Biso   1.000  O
  O4       1.0000 0.50091  0.34497  0.50736  Biso   1.000  O
  O5       1.0000 0.91225  0.92974  0.09214  Biso   1.000  O
  O6       1.0000 0.91225  0.92974  0.91872  Biso   1.000  O
  O7       1.0000 0.91225  0.10316  0.91872  Biso   1.000  O
  O8       1.0000 0.08566  0.92974  0.91872  Biso   1.000  O
  O9       1.0000 0.66245  0.67994  0.14726  Biso   1.000  O
  O10      1.0000 0.66245  0.67994  0.36709  Biso   1.000  O
  O11      1.0000 0.14079  0.37811  0.66892  Biso   1.000  O
  O12      1.0000 0.36062  0.15828  0.66892  Biso   1.000  O
  O13      1.0000 0.66245  0.15828  0.36709  Biso   1.000  O
  O14      1.0000 0.66245  0.37811  0.14726  Biso   1.000  O
  O15      1.0000 0.14079  0.67994  0.66892  Biso   1.000  O
  O16      1.0000 0.36062  0.67994  0.66892  Biso   1.000  O
  O17      1.0000 0.66245  0.37811  0.66892  Biso   1.000  O
  O18      1.0000 0.66245  0.15828  0.66892  Biso   1.000  O
  O19      1.0000 0.14079  0.67994  0.36709  Biso   1.000  O
  O20      1.0000 0.36062  0.67994  0.14726  Biso   1.000  O
  O21      1.0000 0.75070  0.76819  0.27883  Biso   1.000  O
  O22      1.0000 0.75070  0.76819  0.05900  Biso   1.000  O
  O23      1.0000 0.05253  0.28985  0.75717  Biso   1.000  O
  O24      1.0000 0.27237  0.07002  0.75717  Biso   1.000  O
  O25      1.0000 0.27237  0.76819  0.05900  Biso   1.000  O
  O26      1.0000 0.05253  0.76819  0.27883  Biso   1.000  O
  O27      1.0000 0.75070  0.28985  0.75717  Biso   1.000  O
  O28      1.0000 0.75070  0.07002  0.75717  Biso   1.000  O
  O29      1.0000 0.05253  0.76819  0.75717  Biso   1.000  O
  O30      1.0000 0.27237  0.76819  0.75717  Biso   1.000  O
  O31      1.0000 0.75070  0.28985  0.05900  Biso   1.000  O
  O32      1.0000 0.75070  0.07002  0.27883  Biso   1.000  O
  O33      1.0000 0.68010  0.69759  0.17371  Biso   1.000  O
  O34      1.0000 0.68010  0.69759  0.30533  Biso   1.000  O
  O35      1.0000 0.16724  0.31635  0.68657  Biso   1.000  O
  O36      1.0000 0.29886  0.18473  0.68657  Biso   1.000  O
  O37      1.0000 0.68010  0.18473  0.30533  Biso   1.000  O
  O38      1.0000 0.68010  0.31635  0.17371  Biso   1.000  O
  O39      1.0000 0.16724  0.69759  0.68657  Biso   1.000  O
  O40      1.0000 0.29886  0.69759  0.68657  Biso   1.000  O
  O41      1.0000 0.68010  0.31635  0.68657  Biso   1.000  O
  O42      1.0000 0.68010  0.18473  0.68657  Biso   1.000  O
  O43      1.0000 0.16724  0.69759  0.30533  Biso   1.000  O
  O44      1.0000 0.29886  0.69759  0.17371  Biso   1.000  O
  O45      1.0000 0.73305  0.75054  0.25238  Biso   1.000  O
  O46      1.0000 0.73305  0.75054  0.12076  Biso   1.000  O
  O47      1.0000 0.11429  0.26340  0.73952  Biso   1.000  O
  O48      1.0000 0.24591  0.13178  0.73952  Biso   1.000  O
  O49      1.0000 0.24591  0.75054  0.12076  Biso   1.000  O
  O50      1.0000 0.11429  0.75054  0.25238  Biso   1.000  O
  O51      1.0000 0.73305  0.26340  0.73952  Biso   1.000  O
  O52      1.0000 0.73305  0.13178  0.73952  Biso   1.000  O
  O53      1.0000 0.11429  0.75054  0.73952  Biso   1.000  O
  O54      1.0000 0.24591  0.75054  0.73952  Biso   1.000  O
  O55      1.0000 0.73305  0.26340  0.12076  Biso   1.000  O
  O56      1.0000 0.73305  0.13178  0.25238  Biso   1.000  O
  O57      1.0000 0.59559  0.61308  0.32597  Biso   1.000  O
  O58      1.0000 0.65303  0.67052  0.26852  Biso   1.000  O
  O59      1.0000 0.31950  0.33699  0.60206  Biso   1.000  O
  O60      1.0000 0.26206  0.27954  0.65950  Biso   1.000  O
  O61      1.0000 0.59559  0.33699  0.32597  Biso   1.000  O
  O62      1.0000 0.65303  0.27954  0.26852  Biso   1.000  O
  O63      1.0000 0.31950  0.61308  0.60206  Biso   1.000  O
  O64      1.0000 0.26206  0.67052  0.65950  Biso   1.000  O
  O65      1.0000 0.59559  0.33699  0.60206  Biso   1.000  O
  O66      1.0000 0.65303  0.27954  0.65950  Biso   1.000  O
  O67      1.0000 0.31950  0.61308  0.32597  Biso   1.000  O
  O68      1.0000 0.26206  0.67052  0.26852  Biso   1.000  O
  O69      1.0000 0.81756  0.83505  0.10012  Biso   1.000  O
  O70      1.0000 0.76012  0.77761  0.15757  Biso   1.000  O
  O71      1.0000 0.09365  0.11114  0.82403  Biso   1.000  O
  O72      1.0000 0.15110  0.16859  0.76659  Biso   1.000  O
  O73      1.0000 0.09365  0.83505  0.10012  Biso   1.000  O
  O74      1.0000 0.15110  0.77761  0.15757  Biso   1.000  O
  O75      1.0000 0.81756  0.11114  0.82403  Biso   1.000  O
  O76      1.0000 0.76012  0.16859  0.76659  Biso   1.000  O
  O77      1.0000 0.09365  0.83505  0.82403  Biso   1.000  O
  O78      1.0000 0.15110  0.77761  0.76659  Biso   1.000  O
  O79      1.0000 0.81756  0.11114  0.10012  Biso   1.000  O
  O80      1.0000 0.76012  0.16859  0.15757  Biso   1.000  O
  O81      1.0000 0.45755  0.47503  0.46401  Biso   1.000  O
  O82      1.0000 0.95561  0.97310  0.96208  Biso   1.000  O
  O83      1.0000 0.57326  0.59075  0.28757  Biso   1.000  O
  O84      1.0000 0.57326  0.59075  0.40902  Biso   1.000  O
  O85      1.0000 0.28110  0.42004  0.57973  Biso   1.000  O
  O86      1.0000 0.40255  0.29859  0.57973  Biso   1.000  O
  O87      1.0000 0.57326  0.29859  0.40902  Biso   1.000  O
  O88      1.0000 0.57326  0.42004  0.28757  Biso   1.000  O
  O89      1.0000 0.28110  0.59075  0.57973  Biso   1.000  O
  O90      1.0000 0.40255  0.59075  0.57973  Biso   1.000  O
  O91      1.0000 0.57326  0.42004  0.57973  Biso   1.000  O
  O92      1.0000 0.57326  0.29859  0.57973  Biso   1.000  O
  O93      1.0000 0.28110  0.59075  0.40902  Biso   1.000  O
  O94      1.0000 0.40255  0.59075  0.28757  Biso   1.000  O
  O95      1.0000 0.83989  0.85738  0.13852  Biso   1.000  O
  O96      1.0000 0.83989  0.85738  0.01707  Biso   1.000  O
  O97      1.0000 0.01060  0.14954  0.84636  Biso   1.000  O
  O98      1.0000 0.13205  0.02809  0.84636  Biso   1.000  O
  O99      1.0000 0.13205  0.85738  0.01707  Biso   1.000  O
  O100     1.0000 0.01060  0.85738  0.13852  Biso   1.000  O
  O101     1.0000 0.83989  0.14954  0.84636  Biso   1.000  O
  O102     1.0000 0.83989  0.02809  0.84636  Biso   1.000  O
  O103     1.0000 0.01060  0.85738  0.84636  Biso   1.000  O
  O104     1.0000 0.13205  0.85738  0.84636  Biso   1.000  O
  O105     1.0000 0.83989  0.14954  0.01707  Biso   1.000  O
  O106     1.0000 0.83989  0.02809  0.13852  Biso   1.000  O
