data_image0
_cell_length_a       18.2205
_cell_length_b       18.2205
_cell_length_c       18.2205
_cell_angle_alpha    60
_cell_angle_beta     60
_cell_angle_gamma    60

_symmetry_space_group_name_H-M    "P 1"
_symmetry_int_tables_number       1

loop_
  _symmetry_equiv_pos_as_xyz
  'x, y, z'

loop_
  _atom_site_label
  _atom_site_occupancy
  _atom_site_fract_x
  _atom_site_fract_y
  _atom_site_fract_z
  _atom_site_thermal_displace_type
  _atom_site_B_iso_or_equiv
  _atom_site_type_symbol
  Zn1      1.0000 0.29361  0.29361  0.11917  Biso   1.000  Zn
  Zn2      1.0000 0.29361  0.29361  0.29361  Biso   1.000  Zn
  Zn3      1.0000 0.11917  0.29361  0.29361  Biso   1.000  Zn
  Zn4      1.0000 0.29361  0.11917  0.29361  Biso   1.000  Zn
  Zn5      1.0000 0.70639  0.70639  0.88083  Biso   1.000  Zn
  Zn6      1.0000 0.70639  0.70639  0.70639  Biso   1.000  Zn
  Zn7      1.0000 0.70639  0.88083  0.70639  Biso   1.000  Zn
  Zn8      1.0000 0.88083  0.70639  0.70639  Biso   1.000  Zn
  H1       1.0000 0.45580  0.45580  0.93700  Biso   1.000  H
  H2       1.0000 0.45580  0.45580  0.15140  Biso   1.000  H
  H3       1.0000 0.93700  0.15140  0.45580  Biso   1.000  H
  H4       1.0000 0.15140  0.93700  0.45580  Biso   1.000  H
  H5       1.0000 0.45580  0.93700  0.15140  Biso   1.000  H
  H6       1.0000 0.45580  0.15140  0.93700  Biso   1.000  H
  H7       1.0000 0.93700  0.45580  0.45580  Biso   1.000  H
  H8       1.0000 0.15140  0.45580  0.45580  Biso   1.000  H
  H9       1.0000 0.45580  0.15140  0.45580  Biso   1.000  H
  H10      1.0000 0.45580  0.93700  0.45580  Biso   1.000  H
  H11      1.0000 0.93700  0.45580  0.15140  Biso   1.000  H
  H12      1.0000 0.15140  0.45580  0.93700  Biso   1.000  H
  H13      1.0000 0.54420  0.54420  0.06300  Biso   1.000  H
  H14      1.0000 0.54420  0.54420  0.84860  Biso   1.000  H
  H15      1.0000 0.84860  0.06300  0.54420  Biso   1.000  H
  H16      1.0000 0.06300  0.84860  0.54420  Biso   1.000  H
  H17      1.0000 0.06300  0.54420  0.84860  Biso   1.000  H
  H18      1.0000 0.84860  0.54420  0.06300  Biso   1.000  H
  H19      1.0000 0.54420  0.06300  0.54420  Biso   1.000  H
  H20      1.0000 0.54420  0.84860  0.54420  Biso   1.000  H
  H21      1.0000 0.84860  0.54420  0.54420  Biso   1.000  H
  H22      1.0000 0.06300  0.54420  0.54420  Biso   1.000  H
  H23      1.0000 0.54420  0.06300  0.84860  Biso   1.000  H
  H24      1.0000 0.54420  0.84860  0.06300  Biso   1.000  H
  C1       1.0000 0.47350  0.47350  0.96390  Biso   1.000  C
  C2       1.0000 0.47350  0.47350  0.08910  Biso   1.000  C
  C3       1.0000 0.96390  0.08910  0.47350  Biso   1.000  C
  C4       1.0000 0.08910  0.96390  0.47350  Biso   1.000  C
  C5       1.0000 0.47350  0.96390  0.08910  Biso   1.000  C
  C6       1.0000 0.47350  0.08910  0.96390  Biso   1.000  C
  C7       1.0000 0.96390  0.47350  0.47350  Biso   1.000  C
  C8       1.0000 0.08910  0.47350  0.47350  Biso   1.000  C
  C9       1.0000 0.47350  0.08910  0.47350  Biso   1.000  C
  C10      1.0000 0.47350  0.96390  0.47350  Biso   1.000  C
  C11      1.0000 0.96390  0.47350  0.08910  Biso   1.000  C
  C12      1.0000 0.08910  0.47350  0.96390  Biso   1.000  C
  C13      1.0000 0.52650  0.52650  0.03610  Biso   1.000  C
  C14      1.0000 0.52650  0.52650  0.91090  Biso   1.000  C
  C15      1.0000 0.91090  0.03610  0.52650  Biso   1.000  C
  C16      1.0000 0.03610  0.91090  0.52650  Biso   1.000  C
  C17      1.0000 0.03610  0.52650  0.91090  Biso   1.000  C
  C18      1.0000 0.91090  0.52650  0.03610  Biso   1.000  C
  C19      1.0000 0.52650  0.03610  0.52650  Biso   1.000  C
  C20      1.0000 0.52650  0.91090  0.52650  Biso   1.000  C
  C21      1.0000 0.91090  0.52650  0.52650  Biso   1.000  C
  C22      1.0000 0.03610  0.52650  0.52650  Biso   1.000  C
  C23      1.0000 0.52650  0.03610  0.91090  Biso   1.000  C
  C24      1.0000 0.52650  0.91090  0.03610  Biso   1.000  C
  C25      1.0000 0.38850  0.38850  0.11150  Biso   1.000  C
  C26      1.0000 0.44660  0.44660  0.05340  Biso   1.000  C
  C27      1.0000 0.11150  0.11150  0.38850  Biso   1.000  C
  C28      1.0000 0.05340  0.05340  0.44660  Biso   1.000  C
  C29      1.0000 0.38850  0.11150  0.11150  Biso   1.000  C
  C30      1.0000 0.44660  0.05340  0.05340  Biso   1.000  C
  C31      1.0000 0.11150  0.38850  0.38850  Biso   1.000  C
  C32      1.0000 0.05340  0.44660  0.44660  Biso   1.000  C
  C33      1.0000 0.38850  0.11150  0.38850  Biso   1.000  C
  C34      1.0000 0.44660  0.05340  0.44660  Biso   1.000  C
  C35      1.0000 0.11150  0.38850  0.11150  Biso   1.000  C
  C36      1.0000 0.05340  0.44660  0.05340  Biso   1.000  C
  C37      1.0000 0.61150  0.61150  0.88850  Biso   1.000  C
  C38      1.0000 0.55340  0.55340  0.94660  Biso   1.000  C
  C39      1.0000 0.88850  0.88850  0.61150  Biso   1.000  C
  C40      1.0000 0.94660  0.94660  0.55340  Biso   1.000  C
  C41      1.0000 0.88850  0.61150  0.88850  Biso   1.000  C
  C42      1.0000 0.94660  0.55340  0.94660  Biso   1.000  C
  C43      1.0000 0.61150  0.88850  0.61150  Biso   1.000  C
  C44      1.0000 0.55340  0.94660  0.55340  Biso   1.000  C
  C45      1.0000 0.88850  0.61150  0.61150  Biso   1.000  C
  C46      1.0000 0.94660  0.55340  0.55340  Biso   1.000  C
  C47      1.0000 0.61150  0.88850  0.88850  Biso   1.000  C
  C48      1.0000 0.55340  0.94660  0.94660  Biso   1.000  C
  O1       1.0000 0.25000  0.25000  0.25000  Biso   1.000  O
  O2       1.0000 0.75000  0.75000  0.75000  Biso   1.000  O
  O3       1.0000 0.36609  0.36609  0.07351  Biso   1.000  O
  O4       1.0000 0.36609  0.36609  0.19431  Biso   1.000  O
  O5       1.0000 0.07351  0.19431  0.36609  Biso   1.000  O
  O6       1.0000 0.19431  0.07351  0.36609  Biso   1.000  O
  O7       1.0000 0.36609  0.07351  0.19431  Biso   1.000  O
  O8       1.0000 0.36609  0.19431  0.07351  Biso   1.000  O
  O9       1.0000 0.07351  0.36609  0.36609  Biso   1.000  O
  O10      1.0000 0.19431  0.36609  0.36609  Biso   1.000  O
  O11      1.0000 0.36609  0.19431  0.36609  Biso   1.000  O
  O12      1.0000 0.36609  0.07351  0.36609  Biso   1.000  O
  O13      1.0000 0.07351  0.36609  0.19431  Biso   1.000  O
  O14      1.0000 0.19431  0.36609  0.07351  Biso   1.000  O
  O15      1.0000 0.63391  0.63391  0.92649  Biso   1.000  O
  O16      1.0000 0.63391  0.63391  0.80569  Biso   1.000  O
  O17      1.0000 0.80569  0.92649  0.63391  Biso   1.000  O
  O18      1.0000 0.92649  0.80569  0.63391  Biso   1.000  O
  O19      1.0000 0.92649  0.63391  0.80569  Biso   1.000  O
  O20      1.0000 0.80569  0.63391  0.92649  Biso   1.000  O
  O21      1.0000 0.63391  0.92649  0.63391  Biso   1.000  O
  O22      1.0000 0.63391  0.80569  0.63391  Biso   1.000  O
  O23      1.0000 0.80569  0.63391  0.63391  Biso   1.000  O
  O24      1.0000 0.92649  0.63391  0.63391  Biso   1.000  O
  O25      1.0000 0.63391  0.92649  0.80569  Biso   1.000  O
  O26      1.0000 0.63391  0.80569  0.92649  Biso   1.000  O
  Zn9      1.0000 0.52643  0.16474  0.65033  Biso   1.000  Zn
  Zn10     1.0000 0.52643  0.34013  0.65033  Biso   1.000  Zn
  Zn11     1.0000 0.35103  0.34013  0.65033  Biso   1.000  Zn
  Zn12     1.0000 0.52643  0.34013  0.47493  Biso   1.000  Zn
  Zn13     1.0000 0.95347  0.74753  0.05772  Biso   1.000  Zn
  Zn14     1.0000 0.95347  0.92292  0.05772  Biso   1.000  Zn
  Zn15     1.0000 0.12887  0.74753  0.05772  Biso   1.000  Zn
  Zn16     1.0000 0.95347  0.74753  0.23312  Biso   1.000  Zn
  H25      1.0000 0.38755  0.97748  0.81339  Biso   1.000  H
  H26      1.0000 0.68949  0.50320  0.51146  Biso   1.000  H
  H27      1.0000 0.16378  0.20126  0.81339  Biso   1.000  H
  H28      1.0000 0.68949  0.50320  0.28768  Biso   1.000  H
  H29      1.0000 0.16378  0.50320  0.51146  Biso   1.000  H
  H30      1.0000 0.68949  0.20126  0.81339  Biso   1.000  H
  H31      1.0000 0.38755  0.50320  0.28768  Biso   1.000  H
  H32      1.0000 0.68949  0.97748  0.81339  Biso   1.000  H
  H33      1.0000 0.68949  0.20126  0.28768  Biso   1.000  H
  H34      1.0000 0.38755  0.50320  0.81339  Biso   1.000  H
  H35      1.0000 0.68949  0.97748  0.51146  Biso   1.000  H
  H36      1.0000 0.16378  0.50320  0.81339  Biso   1.000  H
  H37      1.0000 0.09234  0.58446  0.89465  Biso   1.000  H
  H38      1.0000 0.79041  0.11017  0.19659  Biso   1.000  H
  H39      1.0000 0.31612  0.58446  0.89465  Biso   1.000  H
  H40      1.0000 0.79041  0.88640  0.42037  Biso   1.000  H
  H41      1.0000 0.31612  0.58446  0.19659  Biso   1.000  H
  H42      1.0000 0.79041  0.11017  0.89465  Biso   1.000  H
  H43      1.0000 0.09234  0.58446  0.42037  Biso   1.000  H
  H44      1.0000 0.79041  0.88640  0.89465  Biso   1.000  H
  H45      1.0000 0.79041  0.58446  0.42037  Biso   1.000  H
  H46      1.0000 0.09234  0.11017  0.89465  Biso   1.000  H
  H47      1.0000 0.79041  0.58446  0.19659  Biso   1.000  H
  H48      1.0000 0.31612  0.88640  0.89465  Biso   1.000  H
  C49      1.0000 0.32372  0.00429  0.83190  Biso   1.000  C
  C50      1.0000 0.70800  0.52171  0.44763  Biso   1.000  C
  C51      1.0000 0.19059  0.13743  0.83190  Biso   1.000  C
  C52      1.0000 0.70800  0.52171  0.31449  Biso   1.000  C
  C53      1.0000 0.19059  0.52171  0.44763  Biso   1.000  C
  C54      1.0000 0.70800  0.13743  0.83190  Biso   1.000  C
  C55      1.0000 0.32372  0.52171  0.31449  Biso   1.000  C
  C56      1.0000 0.70800  0.00429  0.83190  Biso   1.000  C
  C57      1.0000 0.70800  0.13743  0.31449  Biso   1.000  C
  C58      1.0000 0.32372  0.52171  0.83190  Biso   1.000  C
  C59      1.0000 0.70800  0.00429  0.44763  Biso   1.000  C
  C60      1.0000 0.19059  0.52171  0.83190  Biso   1.000  C
  C61      1.0000 0.15617  0.56595  0.87614  Biso   1.000  C
  C62      1.0000 0.77190  0.08336  0.26042  Biso   1.000  C
  C63      1.0000 0.28931  0.56595  0.87614  Biso   1.000  C
  C64      1.0000 0.77190  0.95023  0.39356  Biso   1.000  C
  C65      1.0000 0.28931  0.56595  0.26042  Biso   1.000  C
  C66      1.0000 0.77190  0.08336  0.87614  Biso   1.000  C
  C67      1.0000 0.15617  0.56595  0.39356  Biso   1.000  C
  C68      1.0000 0.77190  0.95023  0.87614  Biso   1.000  C
  C69      1.0000 0.77190  0.56595  0.39356  Biso   1.000  C
  C70      1.0000 0.15617  0.08336  0.87614  Biso   1.000  C
  C71      1.0000 0.77190  0.56595  0.26042  Biso   1.000  C
  C72      1.0000 0.28931  0.95023  0.87614  Biso   1.000  C
  C73      1.0000 0.34276  0.15646  0.74630  Biso   1.000  C
  C74      1.0000 0.28438  0.09809  0.80468  Biso   1.000  C
  C75      1.0000 0.62240  0.43611  0.46666  Biso   1.000  C
  C76      1.0000 0.68078  0.49448  0.40828  Biso   1.000  C
  C77      1.0000 0.34276  0.43611  0.46666  Biso   1.000  C
  C78      1.0000 0.28438  0.49448  0.40828  Biso   1.000  C
  C79      1.0000 0.62240  0.15646  0.74630  Biso   1.000  C
  C80      1.0000 0.68078  0.09809  0.80468  Biso   1.000  C
  C81      1.0000 0.62240  0.15647  0.46666  Biso   1.000  C
  C82      1.0000 0.68078  0.09809  0.40828  Biso   1.000  C
  C83      1.0000 0.34276  0.43611  0.74630  Biso   1.000  C
  C84      1.0000 0.28438  0.49448  0.80468  Biso   1.000  C
  C85      1.0000 0.13714  0.65155  0.96175  Biso   1.000  C
  C86      1.0000 0.19552  0.59317  0.90337  Biso   1.000  C
  C87      1.0000 0.85750  0.93119  0.24139  Biso   1.000  C
  C88      1.0000 0.79912  0.98957  0.29977  Biso   1.000  C
  C89      1.0000 0.13714  0.65155  0.24139  Biso   1.000  C
  C90      1.0000 0.19552  0.59317  0.29977  Biso   1.000  C
  C91      1.0000 0.85750  0.93119  0.96175  Biso   1.000  C
  C92      1.0000 0.79912  0.98957  0.90337  Biso   1.000  C
  C93      1.0000 0.85750  0.65155  0.24139  Biso   1.000  C
  C94      1.0000 0.79912  0.59317  0.29977  Biso   1.000  C
  C95      1.0000 0.13714  0.93119  0.96175  Biso   1.000  C
  C96      1.0000 0.19552  0.98957  0.90337  Biso   1.000  C
  O27      1.0000 0.48258  0.29629  0.60648  Biso   1.000  O
  O28      1.0000 0.99732  0.79137  0.10157  Biso   1.000  O
  O29      1.0000 0.42714  0.11688  0.72390  Biso   1.000  O
  O30      1.0000 0.60000  0.41371  0.55104  Biso   1.000  O
  O31      1.0000 0.30317  0.24085  0.72390  Biso   1.000  O
  O32      1.0000 0.60000  0.41371  0.42708  Biso   1.000  O
  O33      1.0000 0.30317  0.41371  0.55104  Biso   1.000  O
  O34      1.0000 0.60000  0.24085  0.72390  Biso   1.000  O
  O35      1.0000 0.42714  0.41371  0.42708  Biso   1.000  O
  O36      1.0000 0.60000  0.11688  0.72390  Biso   1.000  O
  O37      1.0000 0.60000  0.24085  0.42708  Biso   1.000  O
  O38      1.0000 0.42714  0.41371  0.72390  Biso   1.000  O
  O39      1.0000 0.60000  0.11688  0.55104  Biso   1.000  O
  O40      1.0000 0.30317  0.41371  0.72390  Biso   1.000  O
  O41      1.0000 0.05276  0.67395  0.98415  Biso   1.000  O
  O42      1.0000 0.87990  0.97078  0.15701  Biso   1.000  O
  O43      1.0000 0.17672  0.67395  0.98415  Biso   1.000  O
  O44      1.0000 0.87990  0.84681  0.28097  Biso   1.000  O
  O45      1.0000 0.17672  0.67395  0.15701  Biso   1.000  O
  O46      1.0000 0.87990  0.97078  0.98415  Biso   1.000  O
  O47      1.0000 0.05276  0.67395  0.28097  Biso   1.000  O
  O48      1.0000 0.87990  0.84681  0.98415  Biso   1.000  O
  O49      1.0000 0.87990  0.67395  0.28097  Biso   1.000  O
  O50      1.0000 0.05276  0.97078  0.98415  Biso   1.000  O
  O51      1.0000 0.87990  0.67395  0.15701  Biso   1.000  O
  O52      1.0000 0.17672  0.84681  0.98415  Biso   1.000  O
