data_image0
_cell_length_a       18.2344
_cell_length_b       18.2344
_cell_length_c       18.2344
_cell_angle_alpha    60
_cell_angle_beta     60
_cell_angle_gamma    60

_symmetry_space_group_name_H-M    "P 1"
_symmetry_int_tables_number       1

loop_
  _symmetry_equiv_pos_as_xyz
  'x, y, z'

loop_
  _atom_site_label
  _atom_site_occupancy
  _atom_site_fract_x
  _atom_site_fract_y
  _atom_site_fract_z
  _atom_site_thermal_displace_type
  _atom_site_B_iso_or_equiv
  _atom_site_type_symbol
  C1       1.0000 0.29357  0.29359  0.11925  Biso   1.000  C
  C2       1.0000 0.29358  0.29358  0.29359  Biso   1.000  C
  C3       1.0000 0.11924  0.29359  0.29358  Biso   1.000  C
  C4       1.0000 0.29358  0.11925  0.29359  Biso   1.000  C
  C5       1.0000 0.70642  0.70642  0.88075  Biso   1.000  C
  C6       1.0000 0.70641  0.70642  0.70642  Biso   1.000  C
  C7       1.0000 0.70642  0.88075  0.70642  Biso   1.000  C
  C8       1.0000 0.88075  0.70642  0.70641  Biso   1.000  C
  C9       1.0000 0.45590  0.45590  0.93650  Biso   1.000  C
  C10      1.0000 0.45590  0.45590  0.15170  Biso   1.000  C
  C11      1.0000 0.93650  0.15170  0.45590  Biso   1.000  C
  C12      1.0000 0.15170  0.93650  0.45590  Biso   1.000  C
  C13      1.0000 0.45590  0.93650  0.15170  Biso   1.000  C
  C14      1.0000 0.45590  0.15170  0.93650  Biso   1.000  C
  C15      1.0000 0.93650  0.45590  0.45590  Biso   1.000  C
  C16      1.0000 0.15170  0.45590  0.45590  Biso   1.000  C
  C17      1.0000 0.45590  0.15170  0.45590  Biso   1.000  C
  C18      1.0000 0.45590  0.93650  0.45590  Biso   1.000  C
  C19      1.0000 0.93650  0.45590  0.15170  Biso   1.000  C
  C20      1.0000 0.15170  0.45590  0.93650  Biso   1.000  C
  C21      1.0000 0.54410  0.54410  0.06350  Biso   1.000  C
  C22      1.0000 0.54410  0.54410  0.84830  Biso   1.000  C
  C23      1.0000 0.84830  0.06350  0.54410  Biso   1.000  C
  C24      1.0000 0.06350  0.84830  0.54410  Biso   1.000  C
  C25      1.0000 0.06350  0.54410  0.84830  Biso   1.000  C
  C26      1.0000 0.84830  0.54410  0.06350  Biso   1.000  C
  C27      1.0000 0.54410  0.06350  0.54410  Biso   1.000  C
  C28      1.0000 0.54410  0.84830  0.54410  Biso   1.000  C
  C29      1.0000 0.84830  0.54410  0.54410  Biso   1.000  C
  C30      1.0000 0.06350  0.54410  0.54410  Biso   1.000  C
  C31      1.0000 0.54410  0.06350  0.84830  Biso   1.000  C
  C32      1.0000 0.54410  0.84830  0.06350  Biso   1.000  C
  C33      1.0000 0.47360  0.47360  0.96326  Biso   1.000  C
  C34      1.0000 0.47360  0.47360  0.08954  Biso   1.000  C
  C35      1.0000 0.96326  0.08954  0.47360  Biso   1.000  C
  C36      1.0000 0.08954  0.96326  0.47360  Biso   1.000  C
  C37      1.0000 0.47360  0.96326  0.08954  Biso   1.000  C
  C38      1.0000 0.47360  0.08954  0.96326  Biso   1.000  C
  C39      1.0000 0.96326  0.47360  0.47360  Biso   1.000  C
  C40      1.0000 0.08954  0.47360  0.47360  Biso   1.000  C
  C41      1.0000 0.47360  0.08954  0.47360  Biso   1.000  C
  C42      1.0000 0.47360  0.96326  0.47360  Biso   1.000  C
  C43      1.0000 0.96326  0.47360  0.08954  Biso   1.000  C
  C44      1.0000 0.08954  0.47360  0.96326  Biso   1.000  C
  C45      1.0000 0.52640  0.52640  0.03674  Biso   1.000  C
  C46      1.0000 0.52640  0.52640  0.91046  Biso   1.000  C
  C47      1.0000 0.91046  0.03674  0.52640  Biso   1.000  C
  C48      1.0000 0.03674  0.91046  0.52640  Biso   1.000  C
  C49      1.0000 0.03674  0.52640  0.91046  Biso   1.000  C
  C50      1.0000 0.91046  0.52640  0.03674  Biso   1.000  C
  C51      1.0000 0.52640  0.03674  0.52640  Biso   1.000  C
  C52      1.0000 0.52640  0.91046  0.52640  Biso   1.000  C
  C53      1.0000 0.91046  0.52640  0.52640  Biso   1.000  C
  C54      1.0000 0.03674  0.52640  0.52640  Biso   1.000  C
  C55      1.0000 0.52640  0.03674  0.91046  Biso   1.000  C
  C56      1.0000 0.52640  0.91046  0.03674  Biso   1.000  C
  C57      1.0000 0.38860  0.38860  0.11140  Biso   1.000  C
  C58      1.0000 0.44640  0.44640  0.05360  Biso   1.000  C
  C59      1.0000 0.11140  0.11140  0.38860  Biso   1.000  C
  C60      1.0000 0.05360  0.05360  0.44640  Biso   1.000  C
  C61      1.0000 0.38860  0.11140  0.11140  Biso   1.000  C
  C62      1.0000 0.44640  0.05360  0.05360  Biso   1.000  C
  C63      1.0000 0.11140  0.38860  0.38860  Biso   1.000  C
  C64      1.0000 0.05360  0.44640  0.44640  Biso   1.000  C
  C65      1.0000 0.38860  0.11140  0.38860  Biso   1.000  C
  C66      1.0000 0.44640  0.05360  0.44640  Biso   1.000  C
  C67      1.0000 0.11140  0.38860  0.11140  Biso   1.000  C
  C68      1.0000 0.05360  0.44640  0.05360  Biso   1.000  C
  C69      1.0000 0.61140  0.61140  0.88860  Biso   1.000  C
  C70      1.0000 0.55360  0.55360  0.94640  Biso   1.000  C
  C71      1.0000 0.88860  0.88860  0.61140  Biso   1.000  C
  C72      1.0000 0.94640  0.94640  0.55360  Biso   1.000  C
  C73      1.0000 0.88860  0.61140  0.88860  Biso   1.000  C
  C74      1.0000 0.94640  0.55360  0.94640  Biso   1.000  C
  C75      1.0000 0.61140  0.88860  0.61140  Biso   1.000  C
  C76      1.0000 0.55360  0.94640  0.55360  Biso   1.000  C
  C77      1.0000 0.88860  0.61140  0.61140  Biso   1.000  C
  C78      1.0000 0.94640  0.55360  0.55360  Biso   1.000  C
  C79      1.0000 0.61140  0.88860  0.88860  Biso   1.000  C
  C80      1.0000 0.55360  0.94640  0.94640  Biso   1.000  C
  C81      1.0000 0.25000  0.25000  0.25000  Biso   1.000  C
  C82      1.0000 0.75000  0.75000  0.75000  Biso   1.000  C
  C83      1.0000 0.36604  0.36604  0.07340  Biso   1.000  C
  C84      1.0000 0.36604  0.36604  0.19452  Biso   1.000  C
  C85      1.0000 0.07340  0.19452  0.36604  Biso   1.000  C
  C86      1.0000 0.19452  0.07340  0.36604  Biso   1.000  C
  C87      1.0000 0.36604  0.07340  0.19452  Biso   1.000  C
  C88      1.0000 0.36604  0.19452  0.07340  Biso   1.000  C
  C89      1.0000 0.07340  0.36604  0.36604  Biso   1.000  C
  C90      1.0000 0.19452  0.36604  0.36604  Biso   1.000  C
  C91      1.0000 0.36604  0.19452  0.36604  Biso   1.000  C
  C92      1.0000 0.36604  0.07340  0.36604  Biso   1.000  C
  C93      1.0000 0.07340  0.36604  0.19452  Biso   1.000  C
  C94      1.0000 0.19452  0.36604  0.07340  Biso   1.000  C
  C95      1.0000 0.63396  0.63396  0.92660  Biso   1.000  C
  C96      1.0000 0.63396  0.63396  0.80548  Biso   1.000  C
  C97      1.0000 0.80548  0.92660  0.63396  Biso   1.000  C
  C98      1.0000 0.92660  0.80548  0.63396  Biso   1.000  C
  C99      1.0000 0.92660  0.63396  0.80548  Biso   1.000  C
  C100     1.0000 0.80548  0.63396  0.92660  Biso   1.000  C
  C101     1.0000 0.63396  0.92660  0.63396  Biso   1.000  C
  C102     1.0000 0.63396  0.80548  0.63396  Biso   1.000  C
  C103     1.0000 0.80548  0.63396  0.63396  Biso   1.000  C
  C104     1.0000 0.92660  0.63396  0.63396  Biso   1.000  C
  C105     1.0000 0.63396  0.92660  0.80548  Biso   1.000  C
  C106     1.0000 0.63396  0.80548  0.92660  Biso   1.000  C
  O1       1.0000 0.59706  0.07766  0.71899  Biso   1.000  O
  O2       1.0000 0.59706  0.25335  0.71899  Biso   1.000  O
  O3       1.0000 0.42138  0.25335  0.71899  Biso   1.000  O
  O4       1.0000 0.59706  0.25335  0.54330  Biso   1.000  O
  O5       1.0000 0.02026  0.66182  0.12746  Biso   1.000  O
  O6       1.0000 0.02026  0.83751  0.12746  Biso   1.000  O
  O7       1.0000 0.19595  0.66182  0.12746  Biso   1.000  O
  O8       1.0000 0.02026  0.66182  0.30315  Biso   1.000  O
  O9       1.0000 0.46520  0.89140  0.87805  Biso   1.000  O
  O10      1.0000 0.75612  0.41241  0.58712  Biso   1.000  O
  O11      1.0000 0.23512  0.12148  0.87805  Biso   1.000  O
  O12      1.0000 0.75612  0.41241  0.35704  Biso   1.000  O
  O13      1.0000 0.23512  0.41241  0.58712  Biso   1.000  O
  O14      1.0000 0.75612  0.12148  0.87805  Biso   1.000  O
  O15      1.0000 0.46520  0.41241  0.35704  Biso   1.000  O
  O16      1.0000 0.75612  0.89140  0.87805  Biso   1.000  O
  O17      1.0000 0.75612  0.12148  0.35704  Biso   1.000  O
  O18      1.0000 0.46520  0.41241  0.87805  Biso   1.000  O
  O19      1.0000 0.75612  0.89140  0.58712  Biso   1.000  O
  O20      1.0000 0.23512  0.41241  0.87805  Biso   1.000  O
  O21      1.0000 0.15213  0.50276  0.96840  Biso   1.000  O
  O22      1.0000 0.86120  0.02377  0.25933  Biso   1.000  O
  O23      1.0000 0.38221  0.50276  0.96840  Biso   1.000  O
  O24      1.0000 0.86120  0.79369  0.48941  Biso   1.000  O
  O25      1.0000 0.38221  0.50276  0.25933  Biso   1.000  O
  O26      1.0000 0.86120  0.02377  0.96840  Biso   1.000  O
  O27      1.0000 0.15213  0.50276  0.48941  Biso   1.000  O
  O28      1.0000 0.86120  0.79369  0.96840  Biso   1.000  O
  O29      1.0000 0.86120  0.50276  0.48941  Biso   1.000  O
  O30      1.0000 0.15213  0.02377  0.96840  Biso   1.000  O
  O31      1.0000 0.86120  0.50276  0.25933  Biso   1.000  O
  O32      1.0000 0.38221  0.79369  0.96840  Biso   1.000  O
  O33      1.0000 0.39398  0.91810  0.90031  Biso   1.000  O
  O34      1.0000 0.77839  0.43467  0.51590  Biso   1.000  O
  O35      1.0000 0.26181  0.05026  0.90031  Biso   1.000  O
  O36      1.0000 0.77839  0.43467  0.38374  Biso   1.000  O
  O37      1.0000 0.26181  0.43467  0.51590  Biso   1.000  O
  O38      1.0000 0.77839  0.05026  0.90031  Biso   1.000  O
  O39      1.0000 0.39398  0.43467  0.38374  Biso   1.000  O
  O40      1.0000 0.77839  0.91810  0.90031  Biso   1.000  O
  O41      1.0000 0.77839  0.05026  0.38374  Biso   1.000  O
  O42      1.0000 0.39398  0.43467  0.90031  Biso   1.000  O
  O43      1.0000 0.77839  0.91810  0.51590  Biso   1.000  O
  O44      1.0000 0.26181  0.43467  0.90031  Biso   1.000  O
  O45      1.0000 0.22335  0.48050  0.94614  Biso   1.000  O
  O46      1.0000 0.83894  0.99707  0.33055  Biso   1.000  O
  O47      1.0000 0.35551  0.48050  0.94614  Biso   1.000  O
  O48      1.0000 0.83894  0.86491  0.46271  Biso   1.000  O
  O49      1.0000 0.35551  0.48050  0.33055  Biso   1.000  O
  O50      1.0000 0.83894  0.99707  0.94614  Biso   1.000  O
  O51      1.0000 0.22335  0.48050  0.46271  Biso   1.000  O
  O52      1.0000 0.83894  0.86491  0.94614  Biso   1.000  O
  O53      1.0000 0.83894  0.48050  0.46271  Biso   1.000  O
  O54      1.0000 0.22335  0.99707  0.94614  Biso   1.000  O
  O55      1.0000 0.83894  0.48050  0.33055  Biso   1.000  O
  O56      1.0000 0.35551  0.86491  0.94614  Biso   1.000  O
  O57      1.0000 0.41261  0.06890  0.81559  Biso   1.000  O
  O58      1.0000 0.35600  0.01229  0.87221  Biso   1.000  O
  O59      1.0000 0.69367  0.34995  0.53454  Biso   1.000  O
  O60      1.0000 0.75028  0.40657  0.47793  Biso   1.000  O
  O61      1.0000 0.41261  0.34995  0.53454  Biso   1.000  O
  O62      1.0000 0.35600  0.40657  0.47793  Biso   1.000  O
  O63      1.0000 0.69367  0.06890  0.81559  Biso   1.000  O
  O64      1.0000 0.75028  0.01229  0.87221  Biso   1.000  O
  O65      1.0000 0.69367  0.06890  0.53454  Biso   1.000  O
  O66      1.0000 0.75028  0.01229  0.47793  Biso   1.000  O
  O67      1.0000 0.41261  0.34995  0.81559  Biso   1.000  O
  O68      1.0000 0.35600  0.40657  0.87221  Biso   1.000  O
  O69      1.0000 0.20471  0.56522  0.03086  Biso   1.000  O
  O70      1.0000 0.26132  0.50860  0.97424  Biso   1.000  O
  O71      1.0000 0.92366  0.84627  0.31191  Biso   1.000  O
  O72      1.0000 0.86704  0.90289  0.36853  Biso   1.000  O
  O73      1.0000 0.20471  0.56522  0.31191  Biso   1.000  O
  O74      1.0000 0.26132  0.50860  0.36853  Biso   1.000  O
  O75      1.0000 0.92366  0.84627  0.03086  Biso   1.000  O
  O76      1.0000 0.86704  0.90289  0.97424  Biso   1.000  O
  O77      1.0000 0.92366  0.56522  0.31191  Biso   1.000  O
  O78      1.0000 0.86704  0.50860  0.36853  Biso   1.000  O
  O79      1.0000 0.20471  0.84627  0.03086  Biso   1.000  O
  O80      1.0000 0.26132  0.90289  0.97424  Biso   1.000  O
  O81      1.0000 0.55314  0.20943  0.67507  Biso   1.000  O
  O82      1.0000 0.06418  0.70575  0.17139  Biso   1.000  O
  O83      1.0000 0.49763  0.02981  0.79263  Biso   1.000  O
  O84      1.0000 0.67070  0.32699  0.61956  Biso   1.000  O
  O85      1.0000 0.37353  0.15392  0.79263  Biso   1.000  O
  O86      1.0000 0.67070  0.32699  0.49545  Biso   1.000  O
  O87      1.0000 0.37353  0.32699  0.61956  Biso   1.000  O
  O88      1.0000 0.67070  0.15392  0.79263  Biso   1.000  O
  O89      1.0000 0.49763  0.32699  0.49545  Biso   1.000  O
  O90      1.0000 0.67070  0.02981  0.79263  Biso   1.000  O
  O91      1.0000 0.67070  0.15392  0.49545  Biso   1.000  O
  O92      1.0000 0.49763  0.32699  0.79263  Biso   1.000  O
  O93      1.0000 0.67070  0.02981  0.61956  Biso   1.000  O
  O94      1.0000 0.37353  0.32699  0.79263  Biso   1.000  O
  O95      1.0000 0.11969  0.58819  0.05383  Biso   1.000  O
  O96      1.0000 0.94662  0.88536  0.22689  Biso   1.000  O
  O97      1.0000 0.24380  0.58819  0.05383  Biso   1.000  O
  O98      1.0000 0.94662  0.76125  0.35100  Biso   1.000  O
  O99      1.0000 0.24380  0.58819  0.22689  Biso   1.000  O
  O100     1.0000 0.94662  0.88536  0.05383  Biso   1.000  O
  O101     1.0000 0.11969  0.58819  0.35100  Biso   1.000  O
  O102     1.0000 0.94662  0.76125  0.05383  Biso   1.000  O
  O103     1.0000 0.94662  0.58819  0.35100  Biso   1.000  O
  O104     1.0000 0.11969  0.88536  0.05383  Biso   1.000  O
  O105     1.0000 0.94662  0.58819  0.22689  Biso   1.000  O
  O106     1.0000 0.24380  0.76125  0.05383  Biso   1.000  O
