data_image0
_cell_length_a       18.2789
_cell_length_b       18.2789
_cell_length_c       18.2789
_cell_angle_alpha    60
_cell_angle_beta     60
_cell_angle_gamma    60

_symmetry_space_group_name_H-M    "P 1"
_symmetry_int_tables_number       1

loop_
  _symmetry_equiv_pos_as_xyz
  'x, y, z'

loop_
  _atom_site_label
  _atom_site_occupancy
  _atom_site_fract_x
  _atom_site_fract_y
  _atom_site_fract_z
  _atom_site_thermal_displace_type
  _atom_site_B_iso_or_equiv
  _atom_site_type_symbol
  C1       1.0000 0.29348  0.29347  0.11958  Biso   1.000  C
  C2       1.0000 0.29348  0.29347  0.29347  Biso   1.000  C
  C3       1.0000 0.11959  0.29347  0.29347  Biso   1.000  C
  C4       1.0000 0.29348  0.11958  0.29347  Biso   1.000  C
  C5       1.0000 0.70652  0.70653  0.88042  Biso   1.000  C
  C6       1.0000 0.70652  0.70653  0.70653  Biso   1.000  C
  C7       1.0000 0.70652  0.88042  0.70653  Biso   1.000  C
  C8       1.0000 0.88041  0.70653  0.70653  Biso   1.000  C
  C9       1.0000 0.45520  0.45520  0.93520  Biso   1.000  C
  C10      1.0000 0.45520  0.45520  0.15440  Biso   1.000  C
  C11      1.0000 0.93520  0.15440  0.45520  Biso   1.000  C
  C12      1.0000 0.15440  0.93520  0.45520  Biso   1.000  C
  C13      1.0000 0.45520  0.93520  0.15440  Biso   1.000  C
  C14      1.0000 0.45520  0.15440  0.93520  Biso   1.000  C
  C15      1.0000 0.93520  0.45520  0.45520  Biso   1.000  C
  C16      1.0000 0.15440  0.45520  0.45520  Biso   1.000  C
  C17      1.0000 0.45520  0.15440  0.45520  Biso   1.000  C
  C18      1.0000 0.45520  0.93520  0.45520  Biso   1.000  C
  C19      1.0000 0.93520  0.45520  0.15440  Biso   1.000  C
  C20      1.0000 0.15440  0.45520  0.93520  Biso   1.000  C
  C21      1.0000 0.54480  0.54480  0.06480  Biso   1.000  C
  C22      1.0000 0.54480  0.54480  0.84560  Biso   1.000  C
  C23      1.0000 0.84560  0.06480  0.54480  Biso   1.000  C
  C24      1.0000 0.06480  0.84560  0.54480  Biso   1.000  C
  C25      1.0000 0.06480  0.54480  0.84560  Biso   1.000  C
  C26      1.0000 0.84560  0.54480  0.06480  Biso   1.000  C
  C27      1.0000 0.54480  0.06480  0.54480  Biso   1.000  C
  C28      1.0000 0.54480  0.84560  0.54480  Biso   1.000  C
  C29      1.0000 0.84560  0.54480  0.54480  Biso   1.000  C
  C30      1.0000 0.06480  0.54480  0.54480  Biso   1.000  C
  C31      1.0000 0.54480  0.06480  0.84560  Biso   1.000  C
  C32      1.0000 0.54480  0.84560  0.06480  Biso   1.000  C
  C33      1.0000 0.47338  0.47338  0.96214  Biso   1.000  C
  C34      1.0000 0.47338  0.47338  0.09110  Biso   1.000  C
  C35      1.0000 0.96214  0.09110  0.47338  Biso   1.000  C
  C36      1.0000 0.09110  0.96214  0.47338  Biso   1.000  C
  C37      1.0000 0.47338  0.96214  0.09110  Biso   1.000  C
  C38      1.0000 0.47338  0.09110  0.96214  Biso   1.000  C
  C39      1.0000 0.96214  0.47338  0.47338  Biso   1.000  C
  C40      1.0000 0.09110  0.47338  0.47338  Biso   1.000  C
  C41      1.0000 0.47338  0.09110  0.47338  Biso   1.000  C
  C42      1.0000 0.47338  0.96214  0.47338  Biso   1.000  C
  C43      1.0000 0.96214  0.47338  0.09110  Biso   1.000  C
  C44      1.0000 0.09110  0.47338  0.96214  Biso   1.000  C
  C45      1.0000 0.52662  0.52662  0.03786  Biso   1.000  C
  C46      1.0000 0.52662  0.52662  0.90890  Biso   1.000  C
  C47      1.0000 0.90890  0.03786  0.52662  Biso   1.000  C
  C48      1.0000 0.03786  0.90890  0.52662  Biso   1.000  C
  C49      1.0000 0.03786  0.52662  0.90890  Biso   1.000  C
  C50      1.0000 0.90890  0.52662  0.03786  Biso   1.000  C
  C51      1.0000 0.52662  0.03786  0.52662  Biso   1.000  C
  C52      1.0000 0.52662  0.90890  0.52662  Biso   1.000  C
  C53      1.0000 0.90890  0.52662  0.52662  Biso   1.000  C
  C54      1.0000 0.03786  0.52662  0.52662  Biso   1.000  C
  C55      1.0000 0.52662  0.03786  0.90890  Biso   1.000  C
  C56      1.0000 0.52662  0.90890  0.03786  Biso   1.000  C
  C57      1.0000 0.38853  0.38853  0.11147  Biso   1.000  C
  C58      1.0000 0.44615  0.44615  0.05385  Biso   1.000  C
  C59      1.0000 0.11147  0.11147  0.38853  Biso   1.000  C
  C60      1.0000 0.05385  0.05385  0.44615  Biso   1.000  C
  C61      1.0000 0.38853  0.11147  0.11147  Biso   1.000  C
  C62      1.0000 0.44615  0.05385  0.05385  Biso   1.000  C
  C63      1.0000 0.11147  0.38853  0.38853  Biso   1.000  C
  C64      1.0000 0.05385  0.44615  0.44615  Biso   1.000  C
  C65      1.0000 0.38853  0.11147  0.38853  Biso   1.000  C
  C66      1.0000 0.44615  0.05385  0.44615  Biso   1.000  C
  C67      1.0000 0.11147  0.38853  0.11147  Biso   1.000  C
  C68      1.0000 0.05385  0.44615  0.05385  Biso   1.000  C
  C69      1.0000 0.61147  0.61147  0.88853  Biso   1.000  C
  C70      1.0000 0.55385  0.55385  0.94615  Biso   1.000  C
  C71      1.0000 0.88853  0.88853  0.61147  Biso   1.000  C
  C72      1.0000 0.94615  0.94615  0.55385  Biso   1.000  C
  C73      1.0000 0.88853  0.61147  0.88853  Biso   1.000  C
  C74      1.0000 0.94615  0.55385  0.94615  Biso   1.000  C
  C75      1.0000 0.61147  0.88853  0.61147  Biso   1.000  C
  C76      1.0000 0.55385  0.94615  0.55385  Biso   1.000  C
  C77      1.0000 0.88853  0.61147  0.61147  Biso   1.000  C
  C78      1.0000 0.94615  0.55385  0.55385  Biso   1.000  C
  C79      1.0000 0.61147  0.88853  0.88853  Biso   1.000  C
  C80      1.0000 0.55385  0.94615  0.94615  Biso   1.000  C
  C81      1.0000 0.25000  0.25000  0.25000  Biso   1.000  C
  C82      1.0000 0.75000  0.75000  0.75000  Biso   1.000  C
  C83      1.0000 0.36624  0.36624  0.07286  Biso   1.000  C
  C84      1.0000 0.36624  0.36624  0.19466  Biso   1.000  C
  C85      1.0000 0.07286  0.19466  0.36624  Biso   1.000  C
  C86      1.0000 0.19466  0.07286  0.36624  Biso   1.000  C
  C87      1.0000 0.36624  0.07286  0.19466  Biso   1.000  C
  C88      1.0000 0.36624  0.19466  0.07286  Biso   1.000  C
  C89      1.0000 0.07286  0.36624  0.36624  Biso   1.000  C
  C90      1.0000 0.19466  0.36624  0.36624  Biso   1.000  C
  C91      1.0000 0.36624  0.19466  0.36624  Biso   1.000  C
  C92      1.0000 0.36624  0.07286  0.36624  Biso   1.000  C
  C93      1.0000 0.07286  0.36624  0.19466  Biso   1.000  C
  C94      1.0000 0.19466  0.36624  0.07286  Biso   1.000  C
  C95      1.0000 0.63376  0.63376  0.92714  Biso   1.000  C
  C96      1.0000 0.63376  0.63376  0.80534  Biso   1.000  C
  C97      1.0000 0.80534  0.92714  0.63376  Biso   1.000  C
  C98      1.0000 0.92714  0.80534  0.63376  Biso   1.000  C
  C99      1.0000 0.92714  0.63376  0.80534  Biso   1.000  C
  C100     1.0000 0.80534  0.63376  0.92714  Biso   1.000  C
  C101     1.0000 0.63376  0.92714  0.63376  Biso   1.000  C
  C102     1.0000 0.63376  0.80534  0.63376  Biso   1.000  C
  C103     1.0000 0.80534  0.63376  0.63376  Biso   1.000  C
  C104     1.0000 0.92714  0.63376  0.63376  Biso   1.000  C
  C105     1.0000 0.63376  0.92714  0.80534  Biso   1.000  C
  C106     1.0000 0.63376  0.80534  0.92714  Biso   1.000  C
  O1       1.0000 0.00545  0.83181  0.13274  Biso   1.000  O
  O2       1.0000 0.83456  0.00270  0.13274  Biso   1.000  O
  O3       1.0000 0.42939  0.42664  0.72757  Biso   1.000  O
  O4       1.0000 0.00545  0.00270  0.13274  Biso   1.000  O
  O5       1.0000 0.42939  0.59753  0.55668  Biso   1.000  O
  O6       1.0000 0.42939  0.42664  0.55668  Biso   1.000  O
  O7       1.0000 0.60028  0.42664  0.55668  Biso   1.000  O
  O8       1.0000 0.00545  0.00270  0.96185  Biso   1.000  O
  O9       1.0000 0.63196  0.75088  0.37873  Biso   1.000  O
  O10      1.0000 0.18341  0.67846  0.31070  Biso   1.000  O
  O11      1.0000 0.75363  0.24869  0.37873  Biso   1.000  O
  O12      1.0000 0.15515  0.76756  0.89760  Biso   1.000  O
  O13      1.0000 0.63196  0.24869  0.88092  Biso   1.000  O
  O14      1.0000 0.77031  0.76756  0.28244  Biso   1.000  O
  O15      1.0000 0.60684  0.60409  0.46468  Biso   1.000  O
  O16      1.0000 0.68122  0.80013  0.31070  Biso   1.000  O
  O17      1.0000 0.80289  0.67846  0.31070  Biso   1.000  O
  O18      1.0000 0.15515  0.15239  0.89760  Biso   1.000  O
  O19      1.0000 0.15515  0.76756  0.28244  Biso   1.000  O
  O20      1.0000 0.25144  0.75088  0.75925  Biso   1.000  O
  O21      1.0000 0.25144  0.62920  0.37873  Biso   1.000  O
  O22      1.0000 0.09745  0.82525  0.22474  Biso   1.000  O
  O23      1.0000 0.82801  0.09470  0.95530  Biso   1.000  O
  O24      1.0000 0.60684  0.33464  0.46468  Biso   1.000  O
  O25      1.0000 0.82801  0.09470  0.22474  Biso   1.000  O
  O26      1.0000 0.82801  0.82525  0.22474  Biso   1.000  O
  O27      1.0000 0.75363  0.62920  0.37873  Biso   1.000  O
  O28      1.0000 0.80289  0.18065  0.31070  Biso   1.000  O
  O29      1.0000 0.33739  0.60409  0.46468  Biso   1.000  O
  O30      1.0000 0.68122  0.18065  0.31070  Biso   1.000  O
  O31      1.0000 0.25144  0.62920  0.88092  Biso   1.000  O
  O32      1.0000 0.09745  0.09470  0.95530  Biso   1.000  O
  O33      1.0000 0.68122  0.18065  0.93018  Biso   1.000  O
  O34      1.0000 0.60684  0.33464  0.73413  Biso   1.000  O
  O35      1.0000 0.27970  0.66178  0.40699  Biso   1.000  O
  O36      1.0000 0.63196  0.24869  0.37873  Biso   1.000  O
  O37      1.0000 0.18341  0.18065  0.80851  Biso   1.000  O
  O38      1.0000 0.09745  0.82525  0.95530  Biso   1.000  O
  O39      1.0000 0.75363  0.24869  0.75925  Biso   1.000  O
  O40      1.0000 0.18341  0.18065  0.93018  Biso   1.000  O
  O41      1.0000 0.66453  0.27694  0.79183  Biso   1.000  O
  O42      1.0000 0.25144  0.75088  0.37873  Biso   1.000  O
  O43      1.0000 0.25144  0.24869  0.75925  Biso   1.000  O
  O44      1.0000 0.33739  0.60409  0.73413  Biso   1.000  O
  O45      1.0000 0.25144  0.24869  0.88092  Biso   1.000  O
  O46      1.0000 0.18341  0.67846  0.93018  Biso   1.000  O
  O47      1.0000 0.18341  0.80013  0.80851  Biso   1.000  O
  O48      1.0000 0.77031  0.15239  0.28244  Biso   1.000  O
  O49      1.0000 0.18341  0.80013  0.31070  Biso   1.000  O
  O50      1.0000 0.66453  0.27694  0.40699  Biso   1.000  O
  O51      1.0000 0.27970  0.66178  0.79183  Biso   1.000  O
  O52      1.0000 0.33739  0.33464  0.73413  Biso   1.000  O
  O53      1.0000 0.27970  0.27694  0.79183  Biso   1.000  O
  O54      1.0000 0.77031  0.15239  0.89760  Biso   1.000  O
  O55      1.0000 0.80289  0.18065  0.80851  Biso   1.000  O
  O56      1.0000 0.66453  0.66178  0.40699  Biso   1.000  O
  O57      1.0000 0.35790  0.64577  0.48519  Biso   1.000  O
  O58      1.0000 0.35790  0.64577  0.65143  Biso   1.000  O
  O59      1.0000 0.07694  0.78357  0.20423  Biso   1.000  O
  O60      1.0000 0.52414  0.35515  0.77581  Biso   1.000  O
  O61      1.0000 0.35790  0.35515  0.77581  Biso   1.000  O
  O62      1.0000 0.07694  0.78357  0.03800  Biso   1.000  O
  O63      1.0000 0.91070  0.07419  0.91362  Biso   1.000  O
  O64      1.0000 0.07694  0.07419  0.91362  Biso   1.000  O
  O65      1.0000 0.35790  0.52139  0.48519  Biso   1.000  O
  O66      1.0000 0.64852  0.52139  0.48519  Biso   1.000  O
  O67      1.0000 0.07694  0.90795  0.20423  Biso   1.000  O
  O68      1.0000 0.35790  0.35515  0.65143  Biso   1.000  O
  O69      1.0000 0.91070  0.07419  0.20423  Biso   1.000  O
  O70      1.0000 0.78632  0.90795  0.20423  Biso   1.000  O
  O71      1.0000 0.78632  0.07419  0.20423  Biso   1.000  O
  O72      1.0000 0.35790  0.52139  0.77581  Biso   1.000  O
  O73      1.0000 0.47212  0.46936  0.59941  Biso   1.000  O
  O74      1.0000 0.52414  0.64577  0.48519  Biso   1.000  O
  O75      1.0000 0.91070  0.78357  0.20423  Biso   1.000  O
  O76      1.0000 0.78632  0.07419  0.03800  Biso   1.000  O
  O77      1.0000 0.64852  0.35515  0.48519  Biso   1.000  O
  O78      1.0000 0.07694  0.07419  0.03800  Biso   1.000  O
  O79      1.0000 0.96273  0.95998  0.09002  Biso   1.000  O
  O80      1.0000 0.52414  0.35515  0.48519  Biso   1.000  O
  O81      1.0000 0.07694  0.90795  0.91362  Biso   1.000  O
  O82      1.0000 0.64852  0.35515  0.65143  Biso   1.000  O
  O83      1.0000 0.55661  0.78254  0.40057  Biso   1.000  O
  O84      1.0000 0.16378  0.64289  0.29107  Biso   1.000  O
  O85      1.0000 0.78529  0.27053  0.40057  Biso   1.000  O
  O86      1.0000 0.55661  0.27053  0.91258  Biso   1.000  O
  O87      1.0000 0.64955  0.87548  0.28886  Biso   1.000  O
  O88      1.0000 0.87771  0.64289  0.29107  Biso   1.000  O
  O89      1.0000 0.27328  0.78254  0.68390  Biso   1.000  O
  O90      1.0000 0.27328  0.55386  0.40057  Biso   1.000  O
  O91      1.0000 0.78529  0.55386  0.40057  Biso   1.000  O
  O92      1.0000 0.87824  0.15881  0.28886  Biso   1.000  O
  O93      1.0000 0.64955  0.15881  0.28886  Biso   1.000  O
  O94      1.0000 0.27328  0.55386  0.91258  Biso   1.000  O
  O95      1.0000 0.64955  0.15881  0.00553  Biso   1.000  O
  O96      1.0000 0.55661  0.27053  0.40057  Biso   1.000  O
  O97      1.0000 0.16378  0.16103  0.77294  Biso   1.000  O
  O98      1.0000 0.78920  0.26831  0.68443  Biso   1.000  O
  O99      1.0000 0.16378  0.16103  0.00500  Biso   1.000  O
  O100     1.0000 0.27106  0.78645  0.39835  Biso   1.000  O
  O101     1.0000 0.27328  0.27053  0.68390  Biso   1.000  O
  O102     1.0000 0.27328  0.27053  0.91258  Biso   1.000  O
  O103     1.0000 0.16378  0.64289  0.00500  Biso   1.000  O
  O104     1.0000 0.16378  0.87495  0.77294  Biso   1.000  O
  O105     1.0000 0.16378  0.87495  0.29107  Biso   1.000  O
  O106     1.0000 0.87824  0.15881  0.77684  Biso   1.000  O
