data_image0
_cell_length_a       18.255
_cell_length_b       18.255
_cell_length_c       18.255
_cell_angle_alpha    60
_cell_angle_beta     60
_cell_angle_gamma    60

_symmetry_space_group_name_H-M    "P 1"
_symmetry_int_tables_number       1

loop_
  _symmetry_equiv_pos_as_xyz
  'x, y, z'

loop_
  _atom_site_label
  _atom_site_occupancy
  _atom_site_fract_x
  _atom_site_fract_y
  _atom_site_fract_z
  _atom_site_thermal_displace_type
  _atom_site_B_iso_or_equiv
  _atom_site_type_symbol
  Zn1      1.0000 0.29354  0.29354  0.11938  Biso   1.000  Zn
  Zn2      1.0000 0.29354  0.29354  0.29354  Biso   1.000  Zn
  Zn3      1.0000 0.11938  0.29354  0.29354  Biso   1.000  Zn
  Zn4      1.0000 0.29354  0.11938  0.29354  Biso   1.000  Zn
  Zn5      1.0000 0.70646  0.70646  0.88062  Biso   1.000  Zn
  Zn6      1.0000 0.70646  0.70646  0.70646  Biso   1.000  Zn
  Zn7      1.0000 0.70646  0.88062  0.70646  Biso   1.000  Zn
  Zn8      1.0000 0.88062  0.70646  0.70646  Biso   1.000  Zn
  H1       1.0000 0.45570  0.45570  0.93630  Biso   1.000  H
  H2       1.0000 0.45570  0.45570  0.15230  Biso   1.000  H
  H3       1.0000 0.93630  0.15230  0.45570  Biso   1.000  H
  H4       1.0000 0.15230  0.93630  0.45570  Biso   1.000  H
  H5       1.0000 0.45570  0.93630  0.15230  Biso   1.000  H
  H6       1.0000 0.45570  0.15230  0.93630  Biso   1.000  H
  H7       1.0000 0.93630  0.45570  0.45570  Biso   1.000  H
  H8       1.0000 0.15230  0.45570  0.45570  Biso   1.000  H
  H9       1.0000 0.45570  0.15230  0.45570  Biso   1.000  H
  H10      1.0000 0.45570  0.93630  0.45570  Biso   1.000  H
  H11      1.0000 0.93630  0.45570  0.15230  Biso   1.000  H
  H12      1.0000 0.15230  0.45570  0.93630  Biso   1.000  H
  H13      1.0000 0.54430  0.54430  0.06370  Biso   1.000  H
  H14      1.0000 0.54430  0.54430  0.84770  Biso   1.000  H
  H15      1.0000 0.84770  0.06370  0.54430  Biso   1.000  H
  H16      1.0000 0.06370  0.84770  0.54430  Biso   1.000  H
  H17      1.0000 0.06370  0.54430  0.84770  Biso   1.000  H
  H18      1.0000 0.84770  0.54430  0.06370  Biso   1.000  H
  H19      1.0000 0.54430  0.06370  0.54430  Biso   1.000  H
  H20      1.0000 0.54430  0.84770  0.54430  Biso   1.000  H
  H21      1.0000 0.84770  0.54430  0.54430  Biso   1.000  H
  H22      1.0000 0.06370  0.54430  0.54430  Biso   1.000  H
  H23      1.0000 0.54430  0.06370  0.84770  Biso   1.000  H
  H24      1.0000 0.54430  0.84770  0.06370  Biso   1.000  H
  C1       1.0000 0.47332  0.47332  0.96310  Biso   1.000  C
  C2       1.0000 0.47332  0.47332  0.09026  Biso   1.000  C
  C3       1.0000 0.96310  0.09026  0.47332  Biso   1.000  C
  C4       1.0000 0.09026  0.96310  0.47332  Biso   1.000  C
  C5       1.0000 0.47332  0.96310  0.09026  Biso   1.000  C
  C6       1.0000 0.47332  0.09026  0.96310  Biso   1.000  C
  C7       1.0000 0.96310  0.47332  0.47332  Biso   1.000  C
  C8       1.0000 0.09026  0.47332  0.47332  Biso   1.000  C
  C9       1.0000 0.47332  0.09026  0.47332  Biso   1.000  C
  C10      1.0000 0.47332  0.96310  0.47332  Biso   1.000  C
  C11      1.0000 0.96310  0.47332  0.09026  Biso   1.000  C
  C12      1.0000 0.09026  0.47332  0.96310  Biso   1.000  C
  C13      1.0000 0.52668  0.52668  0.03690  Biso   1.000  C
  C14      1.0000 0.52668  0.52668  0.90974  Biso   1.000  C
  C15      1.0000 0.90974  0.03690  0.52668  Biso   1.000  C
  C16      1.0000 0.03690  0.90974  0.52668  Biso   1.000  C
  C17      1.0000 0.03690  0.52668  0.90974  Biso   1.000  C
  C18      1.0000 0.90974  0.52668  0.03690  Biso   1.000  C
  C19      1.0000 0.52668  0.03690  0.52668  Biso   1.000  C
  C20      1.0000 0.52668  0.90974  0.52668  Biso   1.000  C
  C21      1.0000 0.90974  0.52668  0.52668  Biso   1.000  C
  C22      1.0000 0.03690  0.52668  0.52668  Biso   1.000  C
  C23      1.0000 0.52668  0.03690  0.90974  Biso   1.000  C
  C24      1.0000 0.52668  0.90974  0.03690  Biso   1.000  C
  C25      1.0000 0.38870  0.38870  0.11130  Biso   1.000  C
  C26      1.0000 0.44580  0.44580  0.05420  Biso   1.000  C
  C27      1.0000 0.11130  0.11130  0.38870  Biso   1.000  C
  C28      1.0000 0.05420  0.05420  0.44580  Biso   1.000  C
  C29      1.0000 0.38870  0.11130  0.11130  Biso   1.000  C
  C30      1.0000 0.44580  0.05420  0.05420  Biso   1.000  C
  C31      1.0000 0.11130  0.38870  0.38870  Biso   1.000  C
  C32      1.0000 0.05420  0.44580  0.44580  Biso   1.000  C
  C33      1.0000 0.38870  0.11130  0.38870  Biso   1.000  C
  C34      1.0000 0.44580  0.05420  0.44580  Biso   1.000  C
  C35      1.0000 0.11130  0.38870  0.11130  Biso   1.000  C
  C36      1.0000 0.05420  0.44580  0.05420  Biso   1.000  C
  C37      1.0000 0.61130  0.61130  0.88870  Biso   1.000  C
  C38      1.0000 0.55420  0.55420  0.94580  Biso   1.000  C
  C39      1.0000 0.88870  0.88870  0.61130  Biso   1.000  C
  C40      1.0000 0.94580  0.94580  0.55420  Biso   1.000  C
  C41      1.0000 0.88870  0.61130  0.88870  Biso   1.000  C
  C42      1.0000 0.94580  0.55420  0.94580  Biso   1.000  C
  C43      1.0000 0.61130  0.88870  0.61130  Biso   1.000  C
  C44      1.0000 0.55420  0.94580  0.55420  Biso   1.000  C
  C45      1.0000 0.88870  0.61130  0.61130  Biso   1.000  C
  C46      1.0000 0.94580  0.55420  0.55420  Biso   1.000  C
  C47      1.0000 0.61130  0.88870  0.88870  Biso   1.000  C
  C48      1.0000 0.55420  0.94580  0.94580  Biso   1.000  C
  O1       1.0000 0.25000  0.25000  0.25000  Biso   1.000  O
  O2       1.0000 0.75000  0.75000  0.75000  Biso   1.000  O
  O3       1.0000 0.36613  0.36613  0.07303  Biso   1.000  O
  O4       1.0000 0.36613  0.36613  0.19471  Biso   1.000  O
  O5       1.0000 0.07303  0.19471  0.36613  Biso   1.000  O
  O6       1.0000 0.19471  0.07303  0.36613  Biso   1.000  O
  O7       1.0000 0.36613  0.07303  0.19471  Biso   1.000  O
  O8       1.0000 0.36613  0.19471  0.07303  Biso   1.000  O
  O9       1.0000 0.07303  0.36613  0.36613  Biso   1.000  O
  O10      1.0000 0.19471  0.36613  0.36613  Biso   1.000  O
  O11      1.0000 0.36613  0.19471  0.36613  Biso   1.000  O
  O12      1.0000 0.36613  0.07303  0.36613  Biso   1.000  O
  O13      1.0000 0.07303  0.36613  0.19471  Biso   1.000  O
  O14      1.0000 0.19471  0.36613  0.07303  Biso   1.000  O
  O15      1.0000 0.63387  0.63387  0.92697  Biso   1.000  O
  O16      1.0000 0.63387  0.63387  0.80529  Biso   1.000  O
  O17      1.0000 0.80529  0.92697  0.63387  Biso   1.000  O
  O18      1.0000 0.92697  0.80529  0.63387  Biso   1.000  O
  O19      1.0000 0.92697  0.63387  0.80529  Biso   1.000  O
  O20      1.0000 0.80529  0.63387  0.92697  Biso   1.000  O
  O21      1.0000 0.63387  0.92697  0.63387  Biso   1.000  O
  O22      1.0000 0.63387  0.80529  0.63387  Biso   1.000  O
  O23      1.0000 0.80529  0.63387  0.63387  Biso   1.000  O
  O24      1.0000 0.92697  0.63387  0.63387  Biso   1.000  O
  O25      1.0000 0.63387  0.92697  0.80529  Biso   1.000  O
  O26      1.0000 0.63387  0.80529  0.92697  Biso   1.000  O
  Zn9      1.0000 0.86743  0.69164  0.65455  Biso   1.000  Zn
  Zn10     1.0000 0.28022  0.27885  0.06730  Biso   1.000  Zn
  Zn11     1.0000 0.28022  0.10456  0.06730  Biso   1.000  Zn
  Zn12     1.0000 0.86743  0.51735  0.65455  Biso   1.000  Zn
  Zn13     1.0000 0.86717  0.69184  0.48010  Biso   1.000  Zn
  Zn14     1.0000 0.69279  0.69171  0.65476  Biso   1.000  Zn
  Zn15     1.0000 0.28048  0.10436  0.24175  Biso   1.000  Zn
  Zn16     1.0000 0.45486  0.10449  0.06709  Biso   1.000  Zn
  H25      1.0000 0.02936  0.33412  0.51320  Biso   1.000  H
  H26      1.0000 0.02364  0.55053  0.29934  Biso   1.000  H
  H27      1.0000 0.72860  0.33611  0.81563  Biso   1.000  H
  H28      1.0000 0.50717  0.55171  0.82093  Biso   1.000  H
  H29      1.0000 0.03107  0.55111  0.81383  Biso   1.000  H
  H30      1.0000 0.11830  0.94189  0.20866  Biso   1.000  H
  H31      1.0000 0.12401  0.93878  0.42251  Biso   1.000  H
  H32      1.0000 0.41906  0.94550  0.90623  Biso   1.000  H
  H33      1.0000 0.64048  0.94500  0.90093  Biso   1.000  H
  H34      1.0000 0.11658  0.46119  0.90803  Biso   1.000  H
  H35      1.0000 0.11830  0.46207  0.20866  Biso   1.000  H
  H36      1.0000 0.12401  0.24566  0.42251  Biso   1.000  H
  H37      1.0000 0.41906  0.46009  0.90623  Biso   1.000  H
  H38      1.0000 0.64048  0.24449  0.90093  Biso   1.000  H
  H39      1.0000 0.11659  0.24509  0.90803  Biso   1.000  H
  H40      1.0000 0.02936  0.85431  0.51320  Biso   1.000  H
  H41      1.0000 0.02364  0.85742  0.29934  Biso   1.000  H
  H42      1.0000 0.72859  0.85069  0.81563  Biso   1.000  H
  H43      1.0000 0.50718  0.85119  0.82093  Biso   1.000  H
  H44      1.0000 0.03107  0.33501  0.81383  Biso   1.000  H
  H45      1.0000 0.51106  0.85301  0.51389  Biso   1.000  H
  H46      1.0000 0.72406  0.85572  0.29544  Biso   1.000  H
  H47      1.0000 0.63659  0.94319  0.20796  Biso   1.000  H
  H48      1.0000 0.42359  0.94048  0.42641  Biso   1.000  H
  C49      1.0000 0.96247  0.50764  0.47450  Biso   1.000  C
  C50      1.0000 0.02105  0.45067  0.41412  Biso   1.000  C
  C51      1.0000 0.04825  0.36062  0.45091  Biso   1.000  C
  C52      1.0000 0.04463  0.48836  0.32494  Biso   1.000  C
  C53      1.0000 0.68520  0.50883  0.75104  Biso   1.000  C
  C54      1.0000 0.62812  0.45315  0.80793  Biso   1.000  C
  C55      1.0000 0.66652  0.36180  0.83312  Biso   1.000  C
  C56      1.0000 0.53476  0.48973  0.83652  Biso   1.000  C
  C57      1.0000 0.04736  0.48903  0.83332  Biso   1.000  C
  C58      1.0000 0.18518  0.00986  0.24735  Biso   1.000  C
  C59      1.0000 0.12661  0.95108  0.30774  Biso   1.000  C
  C60      1.0000 0.09941  0.92499  0.27095  Biso   1.000  C
  C61      1.0000 0.10302  0.92319  0.39692  Biso   1.000  C
  C62      1.0000 0.46245  0.01028  0.97081  Biso   1.000  C
  C63      1.0000 0.51953  0.95440  0.91393  Biso   1.000  C
  C64      1.0000 0.48113  0.92661  0.88873  Biso   1.000  C
  C65      1.0000 0.61289  0.92621  0.88533  Biso   1.000  C
  C66      1.0000 0.10029  0.43490  0.88853  Biso   1.000  C
  C67      1.0000 0.18518  0.28856  0.24735  Biso   1.000  C
  C68      1.0000 0.12661  0.34553  0.30774  Biso   1.000  C
  C69      1.0000 0.09941  0.43558  0.27095  Biso   1.000  C
  C70      1.0000 0.10302  0.30784  0.39692  Biso   1.000  C
  C71      1.0000 0.46245  0.28737  0.97081  Biso   1.000  C
  C72      1.0000 0.51953  0.34305  0.91393  Biso   1.000  C
  C73      1.0000 0.48113  0.43440  0.88873  Biso   1.000  C
  C74      1.0000 0.61289  0.30647  0.88533  Biso   1.000  C
  C75      1.0000 0.10029  0.30717  0.88853  Biso   1.000  C
  C76      1.0000 0.96247  0.78634  0.47450  Biso   1.000  C
  C77      1.0000 0.02105  0.84512  0.41412  Biso   1.000  C
  C78      1.0000 0.04824  0.87120  0.45091  Biso   1.000  C
  C79      1.0000 0.04463  0.87301  0.32494  Biso   1.000  C
  C80      1.0000 0.68520  0.78592  0.75104  Biso   1.000  C
  C81      1.0000 0.62813  0.84180  0.80793  Biso   1.000  C
  C82      1.0000 0.66652  0.86959  0.83312  Biso   1.000  C
  C83      1.0000 0.53477  0.86998  0.83652  Biso   1.000  C
  C84      1.0000 0.04737  0.36130  0.83332  Biso   1.000  C
  C85      1.0000 0.68699  0.78804  0.46790  Biso   1.000  C
  C86      1.0000 0.62781  0.84412  0.41492  Biso   1.000  C
  C87      1.0000 0.53765  0.87070  0.45191  Biso   1.000  C
  C88      1.0000 0.66179  0.87311  0.32294  Biso   1.000  C
  C89      1.0000 0.96169  0.51173  0.74584  Biso   1.000  C
  C90      1.0000 0.02006  0.45155  0.80783  Biso   1.000  C
  C91      1.0000 0.46067  0.00816  0.25395  Biso   1.000  C
  C92      1.0000 0.51985  0.95208  0.30694  Biso   1.000  C
  C93      1.0000 0.61001  0.92549  0.26995  Biso   1.000  C
  C94      1.0000 0.48586  0.92309  0.39892  Biso   1.000  C
  C95      1.0000 0.18597  0.28447  0.97601  Biso   1.000  C
  C96      1.0000 0.12759  0.34465  0.91403  Biso   1.000  C
  O27      1.0000 0.94038  0.59331  0.43101  Biso   1.000  O
  O28      1.0000 0.94278  0.46715  0.55719  Biso   1.000  O
  O29      1.0000 0.64431  0.59440  0.72575  Biso   1.000  O
  O30      1.0000 0.76946  0.46864  0.72855  Biso   1.000  O
  O31      1.0000 0.94069  0.59470  0.72625  Biso   1.000  O
  O32      1.0000 0.20727  0.02995  0.29084  Biso   1.000  O
  O33      1.0000 0.20487  0.03236  0.16467  Biso   1.000  O
  O34      1.0000 0.50334  0.02967  0.99611  Biso   1.000  O
  O35      1.0000 0.37819  0.03187  0.99331  Biso   1.000  O
  O36      1.0000 0.20696  0.32685  0.99561  Biso   1.000  O
  O37      1.0000 0.20727  0.20289  0.29084  Biso   1.000  O
  O38      1.0000 0.20487  0.32904  0.16467  Biso   1.000  O
  O39      1.0000 0.50334  0.20180  0.99611  Biso   1.000  O
  O40      1.0000 0.37819  0.32755  0.99331  Biso   1.000  O
  O41      1.0000 0.20696  0.20150  0.99561  Biso   1.000  O
  O42      1.0000 0.94038  0.76625  0.43101  Biso   1.000  O
  O43      1.0000 0.94279  0.76384  0.55719  Biso   1.000  O
  O44      1.0000 0.64432  0.76653  0.72575  Biso   1.000  O
  O45      1.0000 0.76946  0.76433  0.72855  Biso   1.000  O
  O46      1.0000 0.94069  0.46934  0.72625  Biso   1.000  O
  O47      1.0000 0.82374  0.64828  0.61067  Biso   1.000  O
  O48      1.0000 0.76925  0.76485  0.43201  Biso   1.000  O
  O49      1.0000 0.64561  0.76644  0.55249  Biso   1.000  O
  O50      1.0000 0.32392  0.14792  0.11118  Biso   1.000  O
  O51      1.0000 0.37840  0.03135  0.28984  Biso   1.000  O
  O52      1.0000 0.50205  0.02976  0.16937  Biso   1.000  O
