data_image0
_cell_length_a       18.2344
_cell_length_b       18.2344
_cell_length_c       18.2344
_cell_angle_alpha    60
_cell_angle_beta     60
_cell_angle_gamma    60

_symmetry_space_group_name_H-M    "P 1"
_symmetry_int_tables_number       1

loop_
  _symmetry_equiv_pos_as_xyz
  'x, y, z'

loop_
  _atom_site_label
  _atom_site_occupancy
  _atom_site_fract_x
  _atom_site_fract_y
  _atom_site_fract_z
  _atom_site_thermal_displace_type
  _atom_site_B_iso_or_equiv
  _atom_site_type_symbol
  Zn1      1.0000 0.29357  0.29359  0.11925  Biso   1.000  Zn
  Zn2      1.0000 0.29358  0.29358  0.29359  Biso   1.000  Zn
  Zn3      1.0000 0.11924  0.29359  0.29358  Biso   1.000  Zn
  Zn4      1.0000 0.29358  0.11925  0.29359  Biso   1.000  Zn
  Zn5      1.0000 0.70642  0.70642  0.88075  Biso   1.000  Zn
  Zn6      1.0000 0.70641  0.70642  0.70642  Biso   1.000  Zn
  Zn7      1.0000 0.70642  0.88075  0.70642  Biso   1.000  Zn
  Zn8      1.0000 0.88075  0.70642  0.70641  Biso   1.000  Zn
  H1       1.0000 0.45590  0.45590  0.93650  Biso   1.000  H
  H2       1.0000 0.45590  0.45590  0.15170  Biso   1.000  H
  H3       1.0000 0.93650  0.15170  0.45590  Biso   1.000  H
  H4       1.0000 0.15170  0.93650  0.45590  Biso   1.000  H
  H5       1.0000 0.45590  0.93650  0.15170  Biso   1.000  H
  H6       1.0000 0.45590  0.15170  0.93650  Biso   1.000  H
  H7       1.0000 0.93650  0.45590  0.45590  Biso   1.000  H
  H8       1.0000 0.15170  0.45590  0.45590  Biso   1.000  H
  H9       1.0000 0.45590  0.15170  0.45590  Biso   1.000  H
  H10      1.0000 0.45590  0.93650  0.45590  Biso   1.000  H
  H11      1.0000 0.93650  0.45590  0.15170  Biso   1.000  H
  H12      1.0000 0.15170  0.45590  0.93650  Biso   1.000  H
  H13      1.0000 0.54410  0.54410  0.06350  Biso   1.000  H
  H14      1.0000 0.54410  0.54410  0.84830  Biso   1.000  H
  H15      1.0000 0.84830  0.06350  0.54410  Biso   1.000  H
  H16      1.0000 0.06350  0.84830  0.54410  Biso   1.000  H
  H17      1.0000 0.06350  0.54410  0.84830  Biso   1.000  H
  H18      1.0000 0.84830  0.54410  0.06350  Biso   1.000  H
  H19      1.0000 0.54410  0.06350  0.54410  Biso   1.000  H
  H20      1.0000 0.54410  0.84830  0.54410  Biso   1.000  H
  H21      1.0000 0.84830  0.54410  0.54410  Biso   1.000  H
  H22      1.0000 0.06350  0.54410  0.54410  Biso   1.000  H
  H23      1.0000 0.54410  0.06350  0.84830  Biso   1.000  H
  H24      1.0000 0.54410  0.84830  0.06350  Biso   1.000  H
  C1       1.0000 0.47360  0.47360  0.96326  Biso   1.000  C
  C2       1.0000 0.47360  0.47360  0.08954  Biso   1.000  C
  C3       1.0000 0.96326  0.08954  0.47360  Biso   1.000  C
  C4       1.0000 0.08954  0.96326  0.47360  Biso   1.000  C
  C5       1.0000 0.47360  0.96326  0.08954  Biso   1.000  C
  C6       1.0000 0.47360  0.08954  0.96326  Biso   1.000  C
  C7       1.0000 0.96326  0.47360  0.47360  Biso   1.000  C
  C8       1.0000 0.08954  0.47360  0.47360  Biso   1.000  C
  C9       1.0000 0.47360  0.08954  0.47360  Biso   1.000  C
  C10      1.0000 0.47360  0.96326  0.47360  Biso   1.000  C
  C11      1.0000 0.96326  0.47360  0.08954  Biso   1.000  C
  C12      1.0000 0.08954  0.47360  0.96326  Biso   1.000  C
  C13      1.0000 0.52640  0.52640  0.03674  Biso   1.000  C
  C14      1.0000 0.52640  0.52640  0.91046  Biso   1.000  C
  C15      1.0000 0.91046  0.03674  0.52640  Biso   1.000  C
  C16      1.0000 0.03674  0.91046  0.52640  Biso   1.000  C
  C17      1.0000 0.03674  0.52640  0.91046  Biso   1.000  C
  C18      1.0000 0.91046  0.52640  0.03674  Biso   1.000  C
  C19      1.0000 0.52640  0.03674  0.52640  Biso   1.000  C
  C20      1.0000 0.52640  0.91046  0.52640  Biso   1.000  C
  C21      1.0000 0.91046  0.52640  0.52640  Biso   1.000  C
  C22      1.0000 0.03674  0.52640  0.52640  Biso   1.000  C
  C23      1.0000 0.52640  0.03674  0.91046  Biso   1.000  C
  C24      1.0000 0.52640  0.91046  0.03674  Biso   1.000  C
  C25      1.0000 0.38860  0.38860  0.11140  Biso   1.000  C
  C26      1.0000 0.44640  0.44640  0.05360  Biso   1.000  C
  C27      1.0000 0.11140  0.11140  0.38860  Biso   1.000  C
  C28      1.0000 0.05360  0.05360  0.44640  Biso   1.000  C
  C29      1.0000 0.38860  0.11140  0.11140  Biso   1.000  C
  C30      1.0000 0.44640  0.05360  0.05360  Biso   1.000  C
  C31      1.0000 0.11140  0.38860  0.38860  Biso   1.000  C
  C32      1.0000 0.05360  0.44640  0.44640  Biso   1.000  C
  C33      1.0000 0.38860  0.11140  0.38860  Biso   1.000  C
  C34      1.0000 0.44640  0.05360  0.44640  Biso   1.000  C
  C35      1.0000 0.11140  0.38860  0.11140  Biso   1.000  C
  C36      1.0000 0.05360  0.44640  0.05360  Biso   1.000  C
  C37      1.0000 0.61140  0.61140  0.88860  Biso   1.000  C
  C38      1.0000 0.55360  0.55360  0.94640  Biso   1.000  C
  C39      1.0000 0.88860  0.88860  0.61140  Biso   1.000  C
  C40      1.0000 0.94640  0.94640  0.55360  Biso   1.000  C
  C41      1.0000 0.88860  0.61140  0.88860  Biso   1.000  C
  C42      1.0000 0.94640  0.55360  0.94640  Biso   1.000  C
  C43      1.0000 0.61140  0.88860  0.61140  Biso   1.000  C
  C44      1.0000 0.55360  0.94640  0.55360  Biso   1.000  C
  C45      1.0000 0.88860  0.61140  0.61140  Biso   1.000  C
  C46      1.0000 0.94640  0.55360  0.55360  Biso   1.000  C
  C47      1.0000 0.61140  0.88860  0.88860  Biso   1.000  C
  C48      1.0000 0.55360  0.94640  0.94640  Biso   1.000  C
  O1       1.0000 0.25000  0.25000  0.25000  Biso   1.000  O
  O2       1.0000 0.75000  0.75000  0.75000  Biso   1.000  O
  O3       1.0000 0.36604  0.36604  0.07340  Biso   1.000  O
  O4       1.0000 0.36604  0.36604  0.19452  Biso   1.000  O
  O5       1.0000 0.07340  0.19452  0.36604  Biso   1.000  O
  O6       1.0000 0.19452  0.07340  0.36604  Biso   1.000  O
  O7       1.0000 0.36604  0.07340  0.19452  Biso   1.000  O
  O8       1.0000 0.36604  0.19452  0.07340  Biso   1.000  O
  O9       1.0000 0.07340  0.36604  0.36604  Biso   1.000  O
  O10      1.0000 0.19452  0.36604  0.36604  Biso   1.000  O
  O11      1.0000 0.36604  0.19452  0.36604  Biso   1.000  O
  O12      1.0000 0.36604  0.07340  0.36604  Biso   1.000  O
  O13      1.0000 0.07340  0.36604  0.19452  Biso   1.000  O
  O14      1.0000 0.19452  0.36604  0.07340  Biso   1.000  O
  O15      1.0000 0.63396  0.63396  0.92660  Biso   1.000  O
  O16      1.0000 0.63396  0.63396  0.80548  Biso   1.000  O
  O17      1.0000 0.80548  0.92660  0.63396  Biso   1.000  O
  O18      1.0000 0.92660  0.80548  0.63396  Biso   1.000  O
  O19      1.0000 0.92660  0.63396  0.80548  Biso   1.000  O
  O20      1.0000 0.80548  0.63396  0.92660  Biso   1.000  O
  O21      1.0000 0.63396  0.92660  0.63396  Biso   1.000  O
  O22      1.0000 0.63396  0.80548  0.63396  Biso   1.000  O
  O23      1.0000 0.80548  0.63396  0.63396  Biso   1.000  O
  O24      1.0000 0.92660  0.63396  0.63396  Biso   1.000  O
  O25      1.0000 0.63396  0.92660  0.80548  Biso   1.000  O
  O26      1.0000 0.63396  0.80548  0.92660  Biso   1.000  O
  Zn9      1.0000 0.07900  0.58459  0.58668  Biso   1.000  Zn
  Zn10     1.0000 0.49008  0.17338  0.99796  Biso   1.000  Zn
  Zn11     1.0000 0.49008  0.99817  0.99796  Biso   1.000  Zn
  Zn12     1.0000 0.07900  0.40938  0.58668  Biso   1.000  Zn
  Zn13     1.0000 0.07854  0.58493  0.41123  Biso   1.000  Zn
  Zn14     1.0000 0.90339  0.58474  0.58678  Biso   1.000  Zn
  Zn15     1.0000 0.49054  0.99783  0.17341  Biso   1.000  Zn
  Zn16     1.0000 0.66569  0.99802  0.99786  Biso   1.000  Zn
  H25      1.0000 0.24054  0.23130  0.44283  Biso   1.000  H
  H26      1.0000 0.23607  0.44463  0.23069  Biso   1.000  H
  H27      1.0000 0.93609  0.23238  0.74714  Biso   1.000  H
  H28      1.0000 0.72004  0.44210  0.74945  Biso   1.000  H
  H29      1.0000 0.24136  0.44411  0.74464  Biso   1.000  H
  H30      1.0000 0.32854  0.83778  0.14181  Biso   1.000  H
  H31      1.0000 0.33301  0.83456  0.35394  Biso   1.000  H
  H32      1.0000 0.63299  0.83869  0.83749  Biso   1.000  H
  H33      1.0000 0.84904  0.83469  0.83519  Biso   1.000  H
  H34      1.0000 0.32772  0.35318  0.84000  Biso   1.000  H
  H35      1.0000 0.32854  0.35146  0.14181  Biso   1.000  H
  H36      1.0000 0.33301  0.13813  0.35394  Biso   1.000  H
  H37      1.0000 0.63298  0.35038  0.83749  Biso   1.000  H
  H38      1.0000 0.84904  0.14066  0.83519  Biso   1.000  H
  H39      1.0000 0.32772  0.13866  0.84000  Biso   1.000  H
  H40      1.0000 0.24054  0.74499  0.44283  Biso   1.000  H
  H41      1.0000 0.23607  0.74820  0.23069  Biso   1.000  H
  H42      1.0000 0.93609  0.74407  0.74714  Biso   1.000  H
  H43      1.0000 0.72004  0.74808  0.74945  Biso   1.000  H
  H44      1.0000 0.24136  0.22958  0.74464  Biso   1.000  H
  H45      1.0000 0.72093  0.74689  0.44493  Biso   1.000  H
  H46      1.0000 0.93521  0.74800  0.22839  Biso   1.000  H
  H47      1.0000 0.84815  0.83587  0.13971  Biso   1.000  H
  H48      1.0000 0.63386  0.83476  0.35625  Biso   1.000  H
  C49      1.0000 0.17346  0.40084  0.40635  Biso   1.000  C
  C50      1.0000 0.23317  0.34264  0.34503  Biso   1.000  C
  C51      1.0000 0.25837  0.25705  0.38050  Biso   1.000  C
  C52      1.0000 0.25551  0.38242  0.25675  Biso   1.000  C
  C53      1.0000 0.89386  0.40403  0.68402  Biso   1.000  C
  C54      1.0000 0.83966  0.34542  0.73943  Biso   1.000  C
  C55      1.0000 0.87378  0.25863  0.76518  Biso   1.000  C
  C56      1.0000 0.74779  0.37999  0.76699  Biso   1.000  C
  C57      1.0000 0.25729  0.38189  0.76478  Biso   1.000  C
  C58      1.0000 0.39562  0.90380  0.17829  Biso   1.000  C
  C59      1.0000 0.33591  0.84398  0.23961  Biso   1.000  C
  C60      1.0000 0.31071  0.81904  0.20414  Biso   1.000  C
  C61      1.0000 0.31357  0.81783  0.32789  Biso   1.000  C
  C62      1.0000 0.67522  0.90501  0.90062  Biso   1.000  C
  C63      1.0000 0.72942  0.84761  0.84521  Biso   1.000  C
  C64      1.0000 0.69530  0.82066  0.81946  Biso   1.000  C
  C65      1.0000 0.82128  0.81786  0.81765  Biso   1.000  C
  C66      1.0000 0.31179  0.32704  0.81986  Biso   1.000  C
  C67      1.0000 0.39562  0.18192  0.17829  Biso   1.000  C
  C68      1.0000 0.33591  0.24012  0.23961  Biso   1.000  C
  C69      1.0000 0.31071  0.32571  0.20414  Biso   1.000  C
  C70      1.0000 0.31357  0.20035  0.32789  Biso   1.000  C
  C71      1.0000 0.67522  0.17873  0.90062  Biso   1.000  C
  C72      1.0000 0.72942  0.23734  0.84521  Biso   1.000  C
  C73      1.0000 0.69530  0.32413  0.81946  Biso   1.000  C
  C74      1.0000 0.82129  0.20278  0.81765  Biso   1.000  C
  C75      1.0000 0.31179  0.20087  0.81986  Biso   1.000  C
  C76      1.0000 0.17346  0.67896  0.40635  Biso   1.000  C
  C77      1.0000 0.23317  0.73878  0.34503  Biso   1.000  C
  C78      1.0000 0.25837  0.76372  0.38050  Biso   1.000  C
  C79      1.0000 0.25551  0.76493  0.25675  Biso   1.000  C
  C80      1.0000 0.89386  0.67775  0.68402  Biso   1.000  C
  C81      1.0000 0.83966  0.73515  0.73943  Biso   1.000  C
  C82      1.0000 0.87378  0.76210  0.76518  Biso   1.000  C
  C83      1.0000 0.74779  0.76491  0.76699  Biso   1.000  C
  C84      1.0000 0.25729  0.25573  0.76478  Biso   1.000  C
  C85      1.0000 0.90056  0.67977  0.39954  Biso   1.000  C
  C86      1.0000 0.83824  0.73708  0.34723  Biso   1.000  C
  C87      1.0000 0.74818  0.76433  0.38280  Biso   1.000  C
  C88      1.0000 0.87300  0.76553  0.25554  Biso   1.000  C
  C89      1.0000 0.17197  0.40584  0.67600  Biso   1.000  C
  C90      1.0000 0.23209  0.34402  0.73953  Biso   1.000  C
  C91      1.0000 0.66852  0.90300  0.18510  Biso   1.000  C
  C92      1.0000 0.73084  0.84569  0.23741  Biso   1.000  C
  C93      1.0000 0.82090  0.81844  0.20183  Biso   1.000  C
  C94      1.0000 0.69608  0.81723  0.32909  Biso   1.000  C
  C95      1.0000 0.39711  0.17692  0.90864  Biso   1.000  C
  C96      1.0000 0.33699  0.23874  0.84511  Biso   1.000  C
  O27      1.0000 0.15332  0.48641  0.36036  Biso   1.000  O
  O28      1.0000 0.15463  0.35686  0.49072  Biso   1.000  O
  O29      1.0000 0.85388  0.48739  0.65746  Biso   1.000  O
  O30      1.0000 0.98032  0.35985  0.66147  Biso   1.000  O
  O31      1.0000 0.15284  0.48839  0.65866  Biso   1.000  O
  O32      1.0000 0.41575  0.92323  0.22428  Biso   1.000  O
  O33      1.0000 0.41445  0.92534  0.09391  Biso   1.000  O
  O34      1.0000 0.71519  0.92184  0.92717  Biso   1.000  O
  O35      1.0000 0.58876  0.92475  0.92317  Biso   1.000  O
  O36      1.0000 0.41624  0.22301  0.92597  Biso   1.000  O
  O37      1.0000 0.41576  0.09636  0.22428  Biso   1.000  O
  O38      1.0000 0.41445  0.22591  0.09391  Biso   1.000  O
  O39      1.0000 0.71519  0.09537  0.92717  Biso   1.000  O
  O40      1.0000 0.58876  0.22291  0.92317  Biso   1.000  O
  O41      1.0000 0.41624  0.09437  0.92597  Biso   1.000  O
  O42      1.0000 0.15332  0.65953  0.36036  Biso   1.000  O
  O43      1.0000 0.15463  0.65742  0.49072  Biso   1.000  O
  O44      1.0000 0.85388  0.66092  0.65746  Biso   1.000  O
  O45      1.0000 0.98032  0.65801  0.66147  Biso   1.000  O
  O46      1.0000 0.15284  0.35975  0.65866  Biso   1.000  O
  O47      1.0000 0.03572  0.54070  0.54253  Biso   1.000  O
  O48      1.0000 0.98151  0.65853  0.36106  Biso   1.000  O
  O49      1.0000 0.85528  0.66083  0.48271  Biso   1.000  O
  O50      1.0000 0.53336  0.04206  0.04211  Biso   1.000  O
  O51      1.0000 0.58757  0.92423  0.22358  Biso   1.000  O
  O52      1.0000 0.71380  0.92194  0.10193  Biso   1.000  O
