data_image0
_cell_length_a       18.2888
_cell_length_b       18.2888
_cell_length_c       18.2888
_cell_angle_alpha    60
_cell_angle_beta     60
_cell_angle_gamma    60

_symmetry_space_group_name_H-M    "P 1"
_symmetry_int_tables_number       1

loop_
  _symmetry_equiv_pos_as_xyz
  'x, y, z'

loop_
  _atom_site_label
  _atom_site_occupancy
  _atom_site_fract_x
  _atom_site_fract_y
  _atom_site_fract_z
  _atom_site_thermal_displace_type
  _atom_site_B_iso_or_equiv
  _atom_site_type_symbol
  Zn1      1.0000 0.29344  0.29345  0.11966  Biso   1.000  Zn
  Zn2      1.0000 0.29344  0.29345  0.29345  Biso   1.000  Zn
  Zn3      1.0000 0.11965  0.29345  0.29345  Biso   1.000  Zn
  Zn4      1.0000 0.29344  0.11966  0.29345  Biso   1.000  Zn
  Zn5      1.0000 0.70655  0.70656  0.88034  Biso   1.000  Zn
  Zn6      1.0000 0.70656  0.70655  0.70655  Biso   1.000  Zn
  Zn7      1.0000 0.70655  0.88034  0.70656  Biso   1.000  Zn
  Zn8      1.0000 0.88035  0.70655  0.70655  Biso   1.000  Zn
  H1       1.0000 0.45490  0.45490  0.93490  Biso   1.000  H
  H2       1.0000 0.45490  0.45490  0.15530  Biso   1.000  H
  H3       1.0000 0.93490  0.15530  0.45490  Biso   1.000  H
  H4       1.0000 0.15530  0.93490  0.45490  Biso   1.000  H
  H5       1.0000 0.45490  0.93490  0.15530  Biso   1.000  H
  H6       1.0000 0.45490  0.15530  0.93490  Biso   1.000  H
  H7       1.0000 0.93490  0.45490  0.45490  Biso   1.000  H
  H8       1.0000 0.15530  0.45490  0.45490  Biso   1.000  H
  H9       1.0000 0.45490  0.15530  0.45490  Biso   1.000  H
  H10      1.0000 0.45490  0.93490  0.45490  Biso   1.000  H
  H11      1.0000 0.93490  0.45490  0.15530  Biso   1.000  H
  H12      1.0000 0.15530  0.45490  0.93490  Biso   1.000  H
  H13      1.0000 0.54510  0.54510  0.06510  Biso   1.000  H
  H14      1.0000 0.54510  0.54510  0.84470  Biso   1.000  H
  H15      1.0000 0.84470  0.06510  0.54510  Biso   1.000  H
  H16      1.0000 0.06510  0.84470  0.54510  Biso   1.000  H
  H17      1.0000 0.06510  0.54510  0.84470  Biso   1.000  H
  H18      1.0000 0.84470  0.54510  0.06510  Biso   1.000  H
  H19      1.0000 0.54510  0.06510  0.54510  Biso   1.000  H
  H20      1.0000 0.54510  0.84470  0.54510  Biso   1.000  H
  H21      1.0000 0.84470  0.54510  0.54510  Biso   1.000  H
  H22      1.0000 0.06510  0.54510  0.54510  Biso   1.000  H
  H23      1.0000 0.54510  0.06510  0.84470  Biso   1.000  H
  H24      1.0000 0.54510  0.84470  0.06510  Biso   1.000  H
  C1       1.0000 0.47314  0.47314  0.96174  Biso   1.000  C
  C2       1.0000 0.47314  0.47314  0.09198  Biso   1.000  C
  C3       1.0000 0.96174  0.09198  0.47314  Biso   1.000  C
  C4       1.0000 0.09198  0.96174  0.47314  Biso   1.000  C
  C5       1.0000 0.47314  0.96174  0.09198  Biso   1.000  C
  C6       1.0000 0.47314  0.09198  0.96174  Biso   1.000  C
  C7       1.0000 0.96174  0.47314  0.47314  Biso   1.000  C
  C8       1.0000 0.09198  0.47314  0.47314  Biso   1.000  C
  C9       1.0000 0.47314  0.09198  0.47314  Biso   1.000  C
  C10      1.0000 0.47314  0.96174  0.47314  Biso   1.000  C
  C11      1.0000 0.96174  0.47314  0.09198  Biso   1.000  C
  C12      1.0000 0.09198  0.47314  0.96174  Biso   1.000  C
  C13      1.0000 0.52686  0.52686  0.03826  Biso   1.000  C
  C14      1.0000 0.52686  0.52686  0.90802  Biso   1.000  C
  C15      1.0000 0.90802  0.03826  0.52686  Biso   1.000  C
  C16      1.0000 0.03826  0.90802  0.52686  Biso   1.000  C
  C17      1.0000 0.03826  0.52686  0.90802  Biso   1.000  C
  C18      1.0000 0.90802  0.52686  0.03826  Biso   1.000  C
  C19      1.0000 0.52686  0.03826  0.52686  Biso   1.000  C
  C20      1.0000 0.52686  0.90802  0.52686  Biso   1.000  C
  C21      1.0000 0.90802  0.52686  0.52686  Biso   1.000  C
  C22      1.0000 0.03826  0.52686  0.52686  Biso   1.000  C
  C23      1.0000 0.52686  0.03826  0.90802  Biso   1.000  C
  C24      1.0000 0.52686  0.90802  0.03826  Biso   1.000  C
  C25      1.0000 0.38849  0.38849  0.11151  Biso   1.000  C
  C26      1.0000 0.44624  0.44624  0.05376  Biso   1.000  C
  C27      1.0000 0.11151  0.11151  0.38849  Biso   1.000  C
  C28      1.0000 0.05376  0.05376  0.44624  Biso   1.000  C
  C29      1.0000 0.38849  0.11151  0.11151  Biso   1.000  C
  C30      1.0000 0.44624  0.05376  0.05376  Biso   1.000  C
  C31      1.0000 0.11151  0.38849  0.38849  Biso   1.000  C
  C32      1.0000 0.05376  0.44624  0.44624  Biso   1.000  C
  C33      1.0000 0.38849  0.11151  0.38849  Biso   1.000  C
  C34      1.0000 0.44624  0.05376  0.44624  Biso   1.000  C
  C35      1.0000 0.11151  0.38849  0.11151  Biso   1.000  C
  C36      1.0000 0.05376  0.44624  0.05376  Biso   1.000  C
  C37      1.0000 0.61151  0.61151  0.88849  Biso   1.000  C
  C38      1.0000 0.55376  0.55376  0.94624  Biso   1.000  C
  C39      1.0000 0.88849  0.88849  0.61151  Biso   1.000  C
  C40      1.0000 0.94624  0.94624  0.55376  Biso   1.000  C
  C41      1.0000 0.88849  0.61151  0.88849  Biso   1.000  C
  C42      1.0000 0.94624  0.55376  0.94624  Biso   1.000  C
  C43      1.0000 0.61151  0.88849  0.61151  Biso   1.000  C
  C44      1.0000 0.55376  0.94624  0.55376  Biso   1.000  C
  C45      1.0000 0.88849  0.61151  0.61151  Biso   1.000  C
  C46      1.0000 0.94624  0.55376  0.55376  Biso   1.000  C
  C47      1.0000 0.61151  0.88849  0.88849  Biso   1.000  C
  C48      1.0000 0.55376  0.94624  0.94624  Biso   1.000  C
  O1       1.0000 0.25000  0.25000  0.25000  Biso   1.000  O
  O2       1.0000 0.75000  0.75000  0.75000  Biso   1.000  O
  O3       1.0000 0.36620  0.36620  0.07286  Biso   1.000  O
  O4       1.0000 0.36620  0.36620  0.19474  Biso   1.000  O
  O5       1.0000 0.07286  0.19474  0.36620  Biso   1.000  O
  O6       1.0000 0.19474  0.07286  0.36620  Biso   1.000  O
  O7       1.0000 0.36620  0.07286  0.19474  Biso   1.000  O
  O8       1.0000 0.36620  0.19474  0.07286  Biso   1.000  O
  O9       1.0000 0.07286  0.36620  0.36620  Biso   1.000  O
  O10      1.0000 0.19474  0.36620  0.36620  Biso   1.000  O
  O11      1.0000 0.36620  0.19474  0.36620  Biso   1.000  O
  O12      1.0000 0.36620  0.07286  0.36620  Biso   1.000  O
  O13      1.0000 0.07286  0.36620  0.19474  Biso   1.000  O
  O14      1.0000 0.19474  0.36620  0.07286  Biso   1.000  O
  O15      1.0000 0.63380  0.63380  0.92714  Biso   1.000  O
  O16      1.0000 0.63380  0.63380  0.80526  Biso   1.000  O
  O17      1.0000 0.80526  0.92714  0.63380  Biso   1.000  O
  O18      1.0000 0.92714  0.80526  0.63380  Biso   1.000  O
  O19      1.0000 0.92714  0.63380  0.80526  Biso   1.000  O
  O20      1.0000 0.80526  0.63380  0.92714  Biso   1.000  O
  O21      1.0000 0.63380  0.92714  0.63380  Biso   1.000  O
  O22      1.0000 0.63380  0.80526  0.63380  Biso   1.000  O
  O23      1.0000 0.80526  0.63380  0.63380  Biso   1.000  O
  O24      1.0000 0.92714  0.63380  0.63380  Biso   1.000  O
  O25      1.0000 0.63380  0.92714  0.80526  Biso   1.000  O
  O26      1.0000 0.63380  0.80526  0.92714  Biso   1.000  O
  Zn9      1.0000 0.17165  0.97054  0.86887  Biso   1.000  Zn
  Zn10     1.0000 0.58663  0.38550  0.45395  Biso   1.000  Zn
  Zn11     1.0000 0.41298  0.55915  0.45395  Biso   1.000  Zn
  Zn12     1.0000 0.99800  0.14419  0.86887  Biso   1.000  Zn
  Zn13     1.0000 0.99780  0.97034  0.04267  Biso   1.000  Zn
  Zn14     1.0000 0.99793  0.97047  0.86866  Biso   1.000  Zn
  Zn15     1.0000 0.58682  0.55935  0.28014  Biso   1.000  Zn
  Zn16     1.0000 0.58669  0.55922  0.45416  Biso   1.000  Zn
  H25      1.0000 0.83595  0.33043  0.00970  Biso   1.000  H
  H26      1.0000 0.83284  0.11113  0.22277  Biso   1.000  H
  H27      1.0000 0.83955  0.32846  0.70839  Biso   1.000  H
  H28      1.0000 0.83904  0.10996  0.70311  Biso   1.000  H
  H29      1.0000 0.35703  0.11056  0.71018  Biso   1.000  H
  H30      1.0000 0.22672  0.72122  0.31311  Biso   1.000  H
  H31      1.0000 0.44604  0.72432  0.10005  Biso   1.000  H
  H32      1.0000 0.22869  0.71762  0.61443  Biso   1.000  H
  H33      1.0000 0.44721  0.71812  0.61971  Biso   1.000  H
  H34      1.0000 0.44661  0.20014  0.61264  Biso   1.000  H
  H35      1.0000 0.74868  0.19926  0.31311  Biso   1.000  H
  H36      1.0000 0.75179  0.41857  0.10005  Biso   1.000  H
  H37      1.0000 0.74508  0.20124  0.61443  Biso   1.000  H
  H38      1.0000 0.74558  0.41974  0.61971  Biso   1.000  H
  H39      1.0000 0.22760  0.41914  0.61264  Biso   1.000  H
  H40      1.0000 0.35791  0.80848  0.00970  Biso   1.000  H
  H41      1.0000 0.13858  0.80538  0.22277  Biso   1.000  H
  H42      1.0000 0.35593  0.81208  0.70839  Biso   1.000  H
  H43      1.0000 0.13742  0.81158  0.70311  Biso   1.000  H
  H44      1.0000 0.13802  0.32955  0.71018  Biso   1.000  H
  H45      1.0000 0.83724  0.80977  0.00901  Biso   1.000  H
  H46      1.0000 0.83453  0.80707  0.22665  Biso   1.000  H
  H47      1.0000 0.74739  0.71992  0.31381  Biso   1.000  H
  H48      1.0000 0.75009  0.72262  0.09616  Biso   1.000  H
  C49      1.0000 0.90366  0.15386  0.04825  Biso   1.000  C
  C50      1.0000 0.84509  0.21063  0.10842  Biso   1.000  C
  C51      1.0000 0.81911  0.30404  0.07176  Biso   1.000  C
  C52      1.0000 0.81730  0.17308  0.19727  Biso   1.000  C
  C53      1.0000 0.90407  0.15268  0.77273  Biso   1.000  C
  C54      1.0000 0.84840  0.20816  0.71606  Biso   1.000  C
  C55      1.0000 0.82073  0.30286  0.69095  Biso   1.000  C
  C56      1.0000 0.82032  0.17171  0.68757  Biso   1.000  C
  C57      1.0000 0.33083  0.17241  0.69076  Biso   1.000  C
  C58      1.0000 0.40331  0.65350  0.27456  Biso   1.000  C
  C59      1.0000 0.34654  0.71206  0.21440  Biso   1.000  C
  C60      1.0000 0.25311  0.73805  0.25106  Biso   1.000  C
  C61      1.0000 0.38409  0.73985  0.12555  Biso   1.000  C
  C62      1.0000 0.40449  0.65309  0.55008  Biso   1.000  C
  C63      1.0000 0.34901  0.70875  0.60676  Biso   1.000  C
  C64      1.0000 0.25429  0.73644  0.63186  Biso   1.000  C
  C65      1.0000 0.38546  0.73684  0.63525  Biso   1.000  C
  C66      1.0000 0.38476  0.22634  0.63206  Biso   1.000  C
  C67      1.0000 0.68097  0.37583  0.27456  Biso   1.000  C
  C68      1.0000 0.73953  0.31907  0.21440  Biso   1.000  C
  C69      1.0000 0.76551  0.22566  0.25106  Biso   1.000  C
  C70      1.0000 0.76732  0.35662  0.12555  Biso   1.000  C
  C71      1.0000 0.68055  0.37701  0.55008  Biso   1.000  C
  C72      1.0000 0.73622  0.32154  0.60676  Biso   1.000  C
  C73      1.0000 0.76390  0.22683  0.63186  Biso   1.000  C
  C74      1.0000 0.76430  0.35799  0.63525  Biso   1.000  C
  C75      1.0000 0.25379  0.35729  0.63206  Biso   1.000  C
  C76      1.0000 0.18132  0.87620  0.04825  Biso   1.000  C
  C77      1.0000 0.23808  0.81764  0.10842  Biso   1.000  C
  C78      1.0000 0.33151  0.79164  0.07176  Biso   1.000  C
  C79      1.0000 0.20053  0.78984  0.19727  Biso   1.000  C
  C80      1.0000 0.18014  0.87661  0.77273  Biso   1.000  C
  C81      1.0000 0.23561  0.82094  0.71606  Biso   1.000  C
  C82      1.0000 0.33034  0.79326  0.69095  Biso   1.000  C
  C83      1.0000 0.19917  0.79286  0.68757  Biso   1.000  C
  C84      1.0000 0.19987  0.30336  0.69076  Biso   1.000  C
  C85      1.0000 0.90197  0.87451  0.05483  Biso   1.000  C
  C86      1.0000 0.84609  0.81863  0.10762  Biso   1.000  C
  C87      1.0000 0.81961  0.79214  0.07076  Biso   1.000  C
  C88      1.0000 0.81721  0.78974  0.19926  Biso   1.000  C
  C89      1.0000 0.17725  0.14979  0.77791  Biso   1.000  C
  C90      1.0000 0.23720  0.20975  0.71616  Biso   1.000  C
  C91      1.0000 0.68266  0.65519  0.26799  Biso   1.000  C
  C92      1.0000 0.73853  0.71107  0.21520  Biso   1.000  C
  C93      1.0000 0.76502  0.73756  0.25205  Biso   1.000  C
  C94      1.0000 0.76742  0.73995  0.12356  Biso   1.000  C
  C95      1.0000 0.40738  0.37990  0.54490  Biso   1.000  C
  C96      1.0000 0.34742  0.31994  0.60666  Biso   1.000  C
  O27      1.0000 0.92367  0.06851  0.09158  Biso   1.000  O
  O28      1.0000 0.92607  0.19420  0.96587  Biso   1.000  O
  O29      1.0000 0.92339  0.06743  0.79793  Biso   1.000  O
  O30      1.0000 0.92558  0.19272  0.79515  Biso   1.000  O
  O31      1.0000 0.21947  0.06713  0.79744  Biso   1.000  O
  O32      1.0000 0.48866  0.63348  0.23123  Biso   1.000  O
  O33      1.0000 0.36297  0.63109  0.35694  Biso   1.000  O
  O34      1.0000 0.48974  0.63377  0.52488  Biso   1.000  O
  O35      1.0000 0.36445  0.63157  0.52767  Biso   1.000  O
  O36      1.0000 0.49004  0.33768  0.52538  Biso   1.000  O
  O37      1.0000 0.66095  0.46119  0.23123  Biso   1.000  O
  O38      1.0000 0.65856  0.33549  0.35694  Biso   1.000  O
  O39      1.0000 0.66123  0.46227  0.52488  Biso   1.000  O
  O40      1.0000 0.65904  0.33698  0.52767  Biso   1.000  O
  O41      1.0000 0.36515  0.46257  0.52538  Biso   1.000  O
  O42      1.0000 0.09597  0.89621  0.09158  Biso   1.000  O
  O43      1.0000 0.22166  0.89861  0.96587  Biso   1.000  O
  O44      1.0000 0.09489  0.89593  0.79793  Biso   1.000  O
  O45      1.0000 0.22017  0.89812  0.79515  Biso   1.000  O
  O46      1.0000 0.09459  0.19202  0.79744  Biso   1.000  O
  O47      1.0000 0.04120  0.01374  0.91258  Biso   1.000  O
  O48      1.0000 0.92507  0.89761  0.09059  Biso   1.000  O
  O49      1.0000 0.92348  0.89602  0.97056  Biso   1.000  O
  O50      1.0000 0.54343  0.51595  0.41023  Biso   1.000  O
  O51      1.0000 0.65956  0.63209  0.23223  Biso   1.000  O
  O52      1.0000 0.66114  0.63368  0.35226  Biso   1.000  O
