data_image0
_cell_length_a       18.2662
_cell_length_b       18.2662
_cell_length_c       18.2662
_cell_angle_alpha    60
_cell_angle_beta     60
_cell_angle_gamma    60

_symmetry_space_group_name_H-M    "P 1"
_symmetry_int_tables_number       1

loop_
  _symmetry_equiv_pos_as_xyz
  'x, y, z'

loop_
  _atom_site_label
  _atom_site_occupancy
  _atom_site_fract_x
  _atom_site_fract_y
  _atom_site_fract_z
  _atom_site_thermal_displace_type
  _atom_site_B_iso_or_equiv
  _atom_site_type_symbol
  C1       1.0000 0.29353  0.29352  0.11943  Biso   1.000  C
  C2       1.0000 0.29353  0.29352  0.29352  Biso   1.000  C
  C3       1.0000 0.11944  0.29352  0.29352  Biso   1.000  C
  C4       1.0000 0.29353  0.11943  0.29352  Biso   1.000  C
  C5       1.0000 0.70647  0.70648  0.88057  Biso   1.000  C
  C6       1.0000 0.70647  0.70648  0.70648  Biso   1.000  C
  C7       1.0000 0.70647  0.88057  0.70648  Biso   1.000  C
  C8       1.0000 0.88056  0.70648  0.70648  Biso   1.000  C
  C9       1.0000 0.45570  0.45570  0.93590  Biso   1.000  C
  C10      1.0000 0.45570  0.45570  0.15270  Biso   1.000  C
  C11      1.0000 0.93590  0.15270  0.45570  Biso   1.000  C
  C12      1.0000 0.15270  0.93590  0.45570  Biso   1.000  C
  C13      1.0000 0.45570  0.93590  0.15270  Biso   1.000  C
  C14      1.0000 0.45570  0.15270  0.93590  Biso   1.000  C
  C15      1.0000 0.93590  0.45570  0.45570  Biso   1.000  C
  C16      1.0000 0.15270  0.45570  0.45570  Biso   1.000  C
  C17      1.0000 0.45570  0.15270  0.45570  Biso   1.000  C
  C18      1.0000 0.45570  0.93590  0.45570  Biso   1.000  C
  C19      1.0000 0.93590  0.45570  0.15270  Biso   1.000  C
  C20      1.0000 0.15270  0.45570  0.93590  Biso   1.000  C
  C21      1.0000 0.54430  0.54430  0.06410  Biso   1.000  C
  C22      1.0000 0.54430  0.54430  0.84730  Biso   1.000  C
  C23      1.0000 0.84730  0.06410  0.54430  Biso   1.000  C
  C24      1.0000 0.06410  0.84730  0.54430  Biso   1.000  C
  C25      1.0000 0.06410  0.54430  0.84730  Biso   1.000  C
  C26      1.0000 0.84730  0.54430  0.06410  Biso   1.000  C
  C27      1.0000 0.54430  0.06410  0.54430  Biso   1.000  C
  C28      1.0000 0.54430  0.84730  0.54430  Biso   1.000  C
  C29      1.0000 0.84730  0.54430  0.54430  Biso   1.000  C
  C30      1.0000 0.06410  0.54430  0.54430  Biso   1.000  C
  C31      1.0000 0.54430  0.06410  0.84730  Biso   1.000  C
  C32      1.0000 0.54430  0.84730  0.06410  Biso   1.000  C
  C33      1.0000 0.47342  0.47342  0.96246  Biso   1.000  C
  C34      1.0000 0.47342  0.47342  0.09070  Biso   1.000  C
  C35      1.0000 0.96246  0.09070  0.47342  Biso   1.000  C
  C36      1.0000 0.09070  0.96246  0.47342  Biso   1.000  C
  C37      1.0000 0.47342  0.96246  0.09070  Biso   1.000  C
  C38      1.0000 0.47342  0.09070  0.96246  Biso   1.000  C
  C39      1.0000 0.96246  0.47342  0.47342  Biso   1.000  C
  C40      1.0000 0.09070  0.47342  0.47342  Biso   1.000  C
  C41      1.0000 0.47342  0.09070  0.47342  Biso   1.000  C
  C42      1.0000 0.47342  0.96246  0.47342  Biso   1.000  C
  C43      1.0000 0.96246  0.47342  0.09070  Biso   1.000  C
  C44      1.0000 0.09070  0.47342  0.96246  Biso   1.000  C
  C45      1.0000 0.52658  0.52658  0.03754  Biso   1.000  C
  C46      1.0000 0.52658  0.52658  0.90930  Biso   1.000  C
  C47      1.0000 0.90930  0.03754  0.52658  Biso   1.000  C
  C48      1.0000 0.03754  0.90930  0.52658  Biso   1.000  C
  C49      1.0000 0.03754  0.52658  0.90930  Biso   1.000  C
  C50      1.0000 0.90930  0.52658  0.03754  Biso   1.000  C
  C51      1.0000 0.52658  0.03754  0.52658  Biso   1.000  C
  C52      1.0000 0.52658  0.90930  0.52658  Biso   1.000  C
  C53      1.0000 0.90930  0.52658  0.52658  Biso   1.000  C
  C54      1.0000 0.03754  0.52658  0.52658  Biso   1.000  C
  C55      1.0000 0.52658  0.03754  0.90930  Biso   1.000  C
  C56      1.0000 0.52658  0.90930  0.03754  Biso   1.000  C
  C57      1.0000 0.38858  0.38858  0.11142  Biso   1.000  C
  C58      1.0000 0.44625  0.44625  0.05375  Biso   1.000  C
  C59      1.0000 0.11142  0.11142  0.38858  Biso   1.000  C
  C60      1.0000 0.05375  0.05375  0.44625  Biso   1.000  C
  C61      1.0000 0.38858  0.11142  0.11142  Biso   1.000  C
  C62      1.0000 0.44625  0.05375  0.05375  Biso   1.000  C
  C63      1.0000 0.11142  0.38858  0.38858  Biso   1.000  C
  C64      1.0000 0.05375  0.44625  0.44625  Biso   1.000  C
  C65      1.0000 0.38858  0.11142  0.38858  Biso   1.000  C
  C66      1.0000 0.44625  0.05375  0.44625  Biso   1.000  C
  C67      1.0000 0.11142  0.38858  0.11142  Biso   1.000  C
  C68      1.0000 0.05375  0.44625  0.05375  Biso   1.000  C
  C69      1.0000 0.61142  0.61142  0.88858  Biso   1.000  C
  C70      1.0000 0.55375  0.55375  0.94625  Biso   1.000  C
  C71      1.0000 0.88858  0.88858  0.61142  Biso   1.000  C
  C72      1.0000 0.94625  0.94625  0.55375  Biso   1.000  C
  C73      1.0000 0.88858  0.61142  0.88858  Biso   1.000  C
  C74      1.0000 0.94625  0.55375  0.94625  Biso   1.000  C
  C75      1.0000 0.61142  0.88858  0.61142  Biso   1.000  C
  C76      1.0000 0.55375  0.94625  0.55375  Biso   1.000  C
  C77      1.0000 0.88858  0.61142  0.61142  Biso   1.000  C
  C78      1.0000 0.94625  0.55375  0.55375  Biso   1.000  C
  C79      1.0000 0.61142  0.88858  0.88858  Biso   1.000  C
  C80      1.0000 0.55375  0.94625  0.94625  Biso   1.000  C
  C81      1.0000 0.25000  0.25000  0.25000  Biso   1.000  C
  C82      1.0000 0.75000  0.75000  0.75000  Biso   1.000  C
  C83      1.0000 0.36617  0.36617  0.07287  Biso   1.000  C
  C84      1.0000 0.36617  0.36617  0.19479  Biso   1.000  C
  C85      1.0000 0.07287  0.19479  0.36617  Biso   1.000  C
  C86      1.0000 0.19479  0.07287  0.36617  Biso   1.000  C
  C87      1.0000 0.36617  0.07287  0.19479  Biso   1.000  C
  C88      1.0000 0.36617  0.19479  0.07287  Biso   1.000  C
  C89      1.0000 0.07287  0.36617  0.36617  Biso   1.000  C
  C90      1.0000 0.19479  0.36617  0.36617  Biso   1.000  C
  C91      1.0000 0.36617  0.19479  0.36617  Biso   1.000  C
  C92      1.0000 0.36617  0.07287  0.36617  Biso   1.000  C
  C93      1.0000 0.07287  0.36617  0.19479  Biso   1.000  C
  C94      1.0000 0.19479  0.36617  0.07287  Biso   1.000  C
  C95      1.0000 0.63383  0.63383  0.92713  Biso   1.000  C
  C96      1.0000 0.63383  0.63383  0.80521  Biso   1.000  C
  C97      1.0000 0.80521  0.92713  0.63383  Biso   1.000  C
  C98      1.0000 0.92713  0.80521  0.63383  Biso   1.000  C
  C99      1.0000 0.92713  0.63383  0.80521  Biso   1.000  C
  C100     1.0000 0.80521  0.63383  0.92713  Biso   1.000  C
  C101     1.0000 0.63383  0.92713  0.63383  Biso   1.000  C
  C102     1.0000 0.63383  0.80521  0.63383  Biso   1.000  C
  C103     1.0000 0.80521  0.63383  0.63383  Biso   1.000  C
  C104     1.0000 0.92713  0.63383  0.63383  Biso   1.000  C
  C105     1.0000 0.63383  0.92713  0.80521  Biso   1.000  C
  C106     1.0000 0.63383  0.80521  0.92713  Biso   1.000  C
  O1       1.0000 0.89195  0.75759  0.43151  Biso   1.000  O
  O2       1.0000 0.06620  0.75759  0.25726  Biso   1.000  O
  O3       1.0000 0.89195  0.75759  0.25726  Biso   1.000  O
  O4       1.0000 0.89195  0.93184  0.25726  Biso   1.000  O
  O5       1.0000 0.48235  0.34363  0.66905  Biso   1.000  O
  O6       1.0000 0.30810  0.34363  0.84330  Biso   1.000  O
  O7       1.0000 0.48235  0.16938  0.84330  Biso   1.000  O
  O8       1.0000 0.48235  0.34363  0.84330  Biso   1.000  O
  O9       1.0000 0.03310  0.59571  0.61413  Biso   1.000  O
  O10      1.0000 0.25100  0.59571  0.39623  Biso   1.000  O
  O11      1.0000 0.73225  0.89657  0.09538  Biso   1.000  O
  O12      1.0000 0.73225  0.11446  0.09538  Biso   1.000  O
  O13      1.0000 0.73225  0.11446  0.39623  Biso   1.000  O
  O14      1.0000 0.73225  0.89657  0.61413  Biso   1.000  O
  O15      1.0000 0.03310  0.59571  0.09538  Biso   1.000  O
  O16      1.0000 0.25100  0.59571  0.09538  Biso   1.000  O
  O17      1.0000 0.25100  0.89657  0.09538  Biso   1.000  O
  O18      1.0000 0.03310  0.11446  0.09538  Biso   1.000  O
  O19      1.0000 0.73225  0.59571  0.39623  Biso   1.000  O
  O20      1.0000 0.73225  0.59571  0.61413  Biso   1.000  O
  O21      1.0000 0.34120  0.50552  0.48643  Biso   1.000  O
  O22      1.0000 0.12330  0.50552  0.70432  Biso   1.000  O
  O23      1.0000 0.64205  0.98676  0.00518  Biso   1.000  O
  O24      1.0000 0.64205  0.20466  0.00518  Biso   1.000  O
  O25      1.0000 0.64205  0.50552  0.70432  Biso   1.000  O
  O26      1.0000 0.64205  0.50552  0.48643  Biso   1.000  O
  O27      1.0000 0.34120  0.98676  0.00518  Biso   1.000  O
  O28      1.0000 0.12330  0.20466  0.00518  Biso   1.000  O
  O29      1.0000 0.12330  0.50552  0.00518  Biso   1.000  O
  O30      1.0000 0.34120  0.50552  0.00518  Biso   1.000  O
  O31      1.0000 0.64205  0.98676  0.70432  Biso   1.000  O
  O32      1.0000 0.64205  0.20466  0.48643  Biso   1.000  O
  O33      1.0000 0.09660  0.57745  0.58715  Biso   1.000  O
  O34      1.0000 0.22402  0.57745  0.45973  Biso   1.000  O
  O35      1.0000 0.71399  0.96006  0.07712  Biso   1.000  O
  O36      1.0000 0.71399  0.08749  0.07712  Biso   1.000  O
  O37      1.0000 0.71399  0.08749  0.45973  Biso   1.000  O
  O38      1.0000 0.71399  0.96006  0.58715  Biso   1.000  O
  O39      1.0000 0.09660  0.57745  0.07712  Biso   1.000  O
  O40      1.0000 0.22402  0.57745  0.07712  Biso   1.000  O
  O41      1.0000 0.22402  0.96006  0.07712  Biso   1.000  O
  O42      1.0000 0.09660  0.08749  0.07712  Biso   1.000  O
  O43      1.0000 0.71399  0.57745  0.45973  Biso   1.000  O
  O44      1.0000 0.71399  0.57745  0.58715  Biso   1.000  O
  O45      1.0000 0.27770  0.52378  0.51340  Biso   1.000  O
  O46      1.0000 0.15028  0.52378  0.64083  Biso   1.000  O
  O47      1.0000 0.66031  0.01374  0.02344  Biso   1.000  O
  O48      1.0000 0.66031  0.14116  0.02344  Biso   1.000  O
  O49      1.0000 0.66031  0.52378  0.64083  Biso   1.000  O
  O50      1.0000 0.66031  0.52378  0.51340  Biso   1.000  O
  O51      1.0000 0.27770  0.01374  0.02344  Biso   1.000  O
  O52      1.0000 0.15028  0.14116  0.02344  Biso   1.000  O
  O53      1.0000 0.15028  0.52378  0.02344  Biso   1.000  O
  O54      1.0000 0.27770  0.52378  0.02344  Biso   1.000  O
  O55      1.0000 0.66031  0.01374  0.64083  Biso   1.000  O
  O56      1.0000 0.66031  0.14116  0.51340  Biso   1.000  O
  O57      1.0000 0.07422  0.66246  0.43952  Biso   1.000  O
  O58      1.0000 0.13233  0.60434  0.49764  Biso   1.000  O
  O59      1.0000 0.79681  0.93986  0.16212  Biso   1.000  O
  O60      1.0000 0.73870  0.99798  0.10400  Biso   1.000  O
  O61      1.0000 0.79681  0.93986  0.43952  Biso   1.000  O
  O62      1.0000 0.73870  0.99798  0.49764  Biso   1.000  O
  O63      1.0000 0.07422  0.66246  0.16212  Biso   1.000  O
  O64      1.0000 0.13233  0.60434  0.10400  Biso   1.000  O
  O65      1.0000 0.07422  0.93986  0.16212  Biso   1.000  O
  O66      1.0000 0.13233  0.99798  0.10400  Biso   1.000  O
  O67      1.0000 0.79681  0.66246  0.43952  Biso   1.000  O
  O68      1.0000 0.73870  0.60434  0.49764  Biso   1.000  O
  O69      1.0000 0.30008  0.43877  0.66103  Biso   1.000  O
  O70      1.0000 0.24197  0.49689  0.60291  Biso   1.000  O
  O71      1.0000 0.57749  0.16137  0.93843  Biso   1.000  O
  O72      1.0000 0.63560  0.10325  0.99655  Biso   1.000  O
  O73      1.0000 0.57749  0.43877  0.66103  Biso   1.000  O
  O74      1.0000 0.63560  0.49689  0.60291  Biso   1.000  O
  O75      1.0000 0.30008  0.16137  0.93843  Biso   1.000  O
  O76      1.0000 0.24197  0.10325  0.99655  Biso   1.000  O
  O77      1.0000 0.30008  0.43877  0.93843  Biso   1.000  O
  O78      1.0000 0.24197  0.49689  0.99655  Biso   1.000  O
  O79      1.0000 0.57749  0.16137  0.66103  Biso   1.000  O
  O80      1.0000 0.63560  0.10325  0.60291  Biso   1.000  O
  O81      1.0000 0.93551  0.80116  0.30082  Biso   1.000  O
  O82      1.0000 0.43878  0.30007  0.79973  Biso   1.000  O
  O83      1.0000 0.99086  0.68479  0.47823  Biso   1.000  O
  O84      1.0000 0.11292  0.68479  0.35616  Biso   1.000  O
  O85      1.0000 0.81914  0.85650  0.18445  Biso   1.000  O
  O86      1.0000 0.81914  0.97856  0.18445  Biso   1.000  O
  O87      1.0000 0.81914  0.97856  0.35616  Biso   1.000  O
  O88      1.0000 0.81914  0.85650  0.47823  Biso   1.000  O
  O89      1.0000 0.99086  0.68479  0.18445  Biso   1.000  O
  O90      1.0000 0.11292  0.68479  0.18445  Biso   1.000  O
  O91      1.0000 0.11292  0.85650  0.18445  Biso   1.000  O
  O92      1.0000 0.99086  0.97856  0.18445  Biso   1.000  O
  O93      1.0000 0.81914  0.68479  0.35616  Biso   1.000  O
  O94      1.0000 0.81914  0.68479  0.47823  Biso   1.000  O
  O95      1.0000 0.38344  0.41644  0.62233  Biso   1.000  O
  O96      1.0000 0.26138  0.41644  0.74439  Biso   1.000  O
  O97      1.0000 0.55516  0.12266  0.91611  Biso   1.000  O
  O98      1.0000 0.55516  0.24473  0.91611  Biso   1.000  O
  O99      1.0000 0.55516  0.41644  0.74439  Biso   1.000  O
  O100     1.0000 0.55516  0.41644  0.62233  Biso   1.000  O
  O101     1.0000 0.38344  0.12266  0.91611  Biso   1.000  O
  O102     1.0000 0.26138  0.24473  0.91611  Biso   1.000  O
  O103     1.0000 0.26138  0.41644  0.91611  Biso   1.000  O
  O104     1.0000 0.38344  0.41644  0.91611  Biso   1.000  O
  O105     1.0000 0.55516  0.12266  0.74439  Biso   1.000  O
  O106     1.0000 0.55516  0.24473  0.62233  Biso   1.000  O
