data_image0
_cell_length_a       18.255
_cell_length_b       18.255
_cell_length_c       18.255
_cell_angle_alpha    60
_cell_angle_beta     60
_cell_angle_gamma    60

_symmetry_space_group_name_H-M    "P 1"
_symmetry_int_tables_number       1

loop_
  _symmetry_equiv_pos_as_xyz
  'x, y, z'

loop_
  _atom_site_label
  _atom_site_occupancy
  _atom_site_fract_x
  _atom_site_fract_y
  _atom_site_fract_z
  _atom_site_thermal_displace_type
  _atom_site_B_iso_or_equiv
  _atom_site_type_symbol
  C1       1.0000 0.29354  0.29354  0.11938  Biso   1.000  C
  C2       1.0000 0.29354  0.29354  0.29354  Biso   1.000  C
  C3       1.0000 0.11938  0.29354  0.29354  Biso   1.000  C
  C4       1.0000 0.29354  0.11938  0.29354  Biso   1.000  C
  C5       1.0000 0.70646  0.70646  0.88062  Biso   1.000  C
  C6       1.0000 0.70646  0.70646  0.70646  Biso   1.000  C
  C7       1.0000 0.70646  0.88062  0.70646  Biso   1.000  C
  C8       1.0000 0.88062  0.70646  0.70646  Biso   1.000  C
  C9       1.0000 0.45570  0.45570  0.93630  Biso   1.000  C
  C10      1.0000 0.45570  0.45570  0.15230  Biso   1.000  C
  C11      1.0000 0.93630  0.15230  0.45570  Biso   1.000  C
  C12      1.0000 0.15230  0.93630  0.45570  Biso   1.000  C
  C13      1.0000 0.45570  0.93630  0.15230  Biso   1.000  C
  C14      1.0000 0.45570  0.15230  0.93630  Biso   1.000  C
  C15      1.0000 0.93630  0.45570  0.45570  Biso   1.000  C
  C16      1.0000 0.15230  0.45570  0.45570  Biso   1.000  C
  C17      1.0000 0.45570  0.15230  0.45570  Biso   1.000  C
  C18      1.0000 0.45570  0.93630  0.45570  Biso   1.000  C
  C19      1.0000 0.93630  0.45570  0.15230  Biso   1.000  C
  C20      1.0000 0.15230  0.45570  0.93630  Biso   1.000  C
  C21      1.0000 0.54430  0.54430  0.06370  Biso   1.000  C
  C22      1.0000 0.54430  0.54430  0.84770  Biso   1.000  C
  C23      1.0000 0.84770  0.06370  0.54430  Biso   1.000  C
  C24      1.0000 0.06370  0.84770  0.54430  Biso   1.000  C
  C25      1.0000 0.06370  0.54430  0.84770  Biso   1.000  C
  C26      1.0000 0.84770  0.54430  0.06370  Biso   1.000  C
  C27      1.0000 0.54430  0.06370  0.54430  Biso   1.000  C
  C28      1.0000 0.54430  0.84770  0.54430  Biso   1.000  C
  C29      1.0000 0.84770  0.54430  0.54430  Biso   1.000  C
  C30      1.0000 0.06370  0.54430  0.54430  Biso   1.000  C
  C31      1.0000 0.54430  0.06370  0.84770  Biso   1.000  C
  C32      1.0000 0.54430  0.84770  0.06370  Biso   1.000  C
  C33      1.0000 0.47332  0.47332  0.96310  Biso   1.000  C
  C34      1.0000 0.47332  0.47332  0.09026  Biso   1.000  C
  C35      1.0000 0.96310  0.09026  0.47332  Biso   1.000  C
  C36      1.0000 0.09026  0.96310  0.47332  Biso   1.000  C
  C37      1.0000 0.47332  0.96310  0.09026  Biso   1.000  C
  C38      1.0000 0.47332  0.09026  0.96310  Biso   1.000  C
  C39      1.0000 0.96310  0.47332  0.47332  Biso   1.000  C
  C40      1.0000 0.09026  0.47332  0.47332  Biso   1.000  C
  C41      1.0000 0.47332  0.09026  0.47332  Biso   1.000  C
  C42      1.0000 0.47332  0.96310  0.47332  Biso   1.000  C
  C43      1.0000 0.96310  0.47332  0.09026  Biso   1.000  C
  C44      1.0000 0.09026  0.47332  0.96310  Biso   1.000  C
  C45      1.0000 0.52668  0.52668  0.03690  Biso   1.000  C
  C46      1.0000 0.52668  0.52668  0.90974  Biso   1.000  C
  C47      1.0000 0.90974  0.03690  0.52668  Biso   1.000  C
  C48      1.0000 0.03690  0.90974  0.52668  Biso   1.000  C
  C49      1.0000 0.03690  0.52668  0.90974  Biso   1.000  C
  C50      1.0000 0.90974  0.52668  0.03690  Biso   1.000  C
  C51      1.0000 0.52668  0.03690  0.52668  Biso   1.000  C
  C52      1.0000 0.52668  0.90974  0.52668  Biso   1.000  C
  C53      1.0000 0.90974  0.52668  0.52668  Biso   1.000  C
  C54      1.0000 0.03690  0.52668  0.52668  Biso   1.000  C
  C55      1.0000 0.52668  0.03690  0.90974  Biso   1.000  C
  C56      1.0000 0.52668  0.90974  0.03690  Biso   1.000  C
  C57      1.0000 0.38870  0.38870  0.11130  Biso   1.000  C
  C58      1.0000 0.44580  0.44580  0.05420  Biso   1.000  C
  C59      1.0000 0.11130  0.11130  0.38870  Biso   1.000  C
  C60      1.0000 0.05420  0.05420  0.44580  Biso   1.000  C
  C61      1.0000 0.38870  0.11130  0.11130  Biso   1.000  C
  C62      1.0000 0.44580  0.05420  0.05420  Biso   1.000  C
  C63      1.0000 0.11130  0.38870  0.38870  Biso   1.000  C
  C64      1.0000 0.05420  0.44580  0.44580  Biso   1.000  C
  C65      1.0000 0.38870  0.11130  0.38870  Biso   1.000  C
  C66      1.0000 0.44580  0.05420  0.44580  Biso   1.000  C
  C67      1.0000 0.11130  0.38870  0.11130  Biso   1.000  C
  C68      1.0000 0.05420  0.44580  0.05420  Biso   1.000  C
  C69      1.0000 0.61130  0.61130  0.88870  Biso   1.000  C
  C70      1.0000 0.55420  0.55420  0.94580  Biso   1.000  C
  C71      1.0000 0.88870  0.88870  0.61130  Biso   1.000  C
  C72      1.0000 0.94580  0.94580  0.55420  Biso   1.000  C
  C73      1.0000 0.88870  0.61130  0.88870  Biso   1.000  C
  C74      1.0000 0.94580  0.55420  0.94580  Biso   1.000  C
  C75      1.0000 0.61130  0.88870  0.61130  Biso   1.000  C
  C76      1.0000 0.55420  0.94580  0.55420  Biso   1.000  C
  C77      1.0000 0.88870  0.61130  0.61130  Biso   1.000  C
  C78      1.0000 0.94580  0.55420  0.55420  Biso   1.000  C
  C79      1.0000 0.61130  0.88870  0.88870  Biso   1.000  C
  C80      1.0000 0.55420  0.94580  0.94580  Biso   1.000  C
  C81      1.0000 0.25000  0.25000  0.25000  Biso   1.000  C
  C82      1.0000 0.75000  0.75000  0.75000  Biso   1.000  C
  C83      1.0000 0.36613  0.36613  0.07303  Biso   1.000  C
  C84      1.0000 0.36613  0.36613  0.19471  Biso   1.000  C
  C85      1.0000 0.07303  0.19471  0.36613  Biso   1.000  C
  C86      1.0000 0.19471  0.07303  0.36613  Biso   1.000  C
  C87      1.0000 0.36613  0.07303  0.19471  Biso   1.000  C
  C88      1.0000 0.36613  0.19471  0.07303  Biso   1.000  C
  C89      1.0000 0.07303  0.36613  0.36613  Biso   1.000  C
  C90      1.0000 0.19471  0.36613  0.36613  Biso   1.000  C
  C91      1.0000 0.36613  0.19471  0.36613  Biso   1.000  C
  C92      1.0000 0.36613  0.07303  0.36613  Biso   1.000  C
  C93      1.0000 0.07303  0.36613  0.19471  Biso   1.000  C
  C94      1.0000 0.19471  0.36613  0.07303  Biso   1.000  C
  C95      1.0000 0.63387  0.63387  0.92697  Biso   1.000  C
  C96      1.0000 0.63387  0.63387  0.80529  Biso   1.000  C
  C97      1.0000 0.80529  0.92697  0.63387  Biso   1.000  C
  C98      1.0000 0.92697  0.80529  0.63387  Biso   1.000  C
  C99      1.0000 0.92697  0.63387  0.80529  Biso   1.000  C
  C100     1.0000 0.80529  0.63387  0.92697  Biso   1.000  C
  C101     1.0000 0.63387  0.92697  0.63387  Biso   1.000  C
  C102     1.0000 0.63387  0.80529  0.63387  Biso   1.000  C
  C103     1.0000 0.80529  0.63387  0.63387  Biso   1.000  C
  C104     1.0000 0.92697  0.63387  0.63387  Biso   1.000  C
  C105     1.0000 0.63387  0.92697  0.80529  Biso   1.000  C
  C106     1.0000 0.63387  0.80529  0.92697  Biso   1.000  C
  O1       1.0000 0.89251  0.75762  0.43200  Biso   1.000  O
  O2       1.0000 0.06686  0.75762  0.25766  Biso   1.000  O
  O3       1.0000 0.89251  0.75762  0.25766  Biso   1.000  O
  O4       1.0000 0.89251  0.93197  0.25766  Biso   1.000  O
  O5       1.0000 0.48361  0.34348  0.66917  Biso   1.000  O
  O6       1.0000 0.30926  0.34348  0.84351  Biso   1.000  O
  O7       1.0000 0.48361  0.16914  0.84351  Biso   1.000  O
  O8       1.0000 0.48361  0.34348  0.84351  Biso   1.000  O
  O9       1.0000 0.03456  0.59547  0.61424  Biso   1.000  O
  O10      1.0000 0.25172  0.59547  0.39709  Biso   1.000  O
  O11      1.0000 0.73298  0.89706  0.09550  Biso   1.000  O
  O12      1.0000 0.73298  0.11421  0.09550  Biso   1.000  O
  O13      1.0000 0.73298  0.11421  0.39709  Biso   1.000  O
  O14      1.0000 0.73298  0.89706  0.61424  Biso   1.000  O
  O15      1.0000 0.03456  0.59547  0.09550  Biso   1.000  O
  O16      1.0000 0.25172  0.59547  0.09550  Biso   1.000  O
  O17      1.0000 0.25172  0.89706  0.09550  Biso   1.000  O
  O18      1.0000 0.03456  0.11421  0.09550  Biso   1.000  O
  O19      1.0000 0.73298  0.59547  0.39709  Biso   1.000  O
  O20      1.0000 0.73298  0.59547  0.61424  Biso   1.000  O
  O21      1.0000 0.34155  0.50563  0.48692  Biso   1.000  O
  O22      1.0000 0.12440  0.50564  0.70408  Biso   1.000  O
  O23      1.0000 0.64314  0.98689  0.00567  Biso   1.000  O
  O24      1.0000 0.64314  0.20405  0.00567  Biso   1.000  O
  O25      1.0000 0.64314  0.50564  0.70408  Biso   1.000  O
  O26      1.0000 0.64314  0.50564  0.48692  Biso   1.000  O
  O27      1.0000 0.34155  0.98689  0.00567  Biso   1.000  O
  O28      1.0000 0.12440  0.20405  0.00567  Biso   1.000  O
  O29      1.0000 0.12440  0.50564  0.00567  Biso   1.000  O
  O30      1.0000 0.34155  0.50564  0.00567  Biso   1.000  O
  O31      1.0000 0.64314  0.98689  0.70408  Biso   1.000  O
  O32      1.0000 0.64314  0.20405  0.48692  Biso   1.000  O
  O33      1.0000 0.09803  0.57724  0.58723  Biso   1.000  O
  O34      1.0000 0.22471  0.57724  0.46056  Biso   1.000  O
  O35      1.0000 0.71475  0.96052  0.07727  Biso   1.000  O
  O36      1.0000 0.71475  0.08720  0.07727  Biso   1.000  O
  O37      1.0000 0.71475  0.08720  0.46056  Biso   1.000  O
  O38      1.0000 0.71475  0.96052  0.58723  Biso   1.000  O
  O39      1.0000 0.09803  0.57724  0.07727  Biso   1.000  O
  O40      1.0000 0.22471  0.57724  0.07727  Biso   1.000  O
  O41      1.0000 0.22471  0.96052  0.07727  Biso   1.000  O
  O42      1.0000 0.09803  0.08720  0.07727  Biso   1.000  O
  O43      1.0000 0.71475  0.57724  0.46056  Biso   1.000  O
  O44      1.0000 0.71475  0.57724  0.58723  Biso   1.000  O
  O45      1.0000 0.27809  0.52386  0.51394  Biso   1.000  O
  O46      1.0000 0.15141  0.52386  0.64061  Biso   1.000  O
  O47      1.0000 0.66137  0.01390  0.02389  Biso   1.000  O
  O48      1.0000 0.66137  0.14058  0.02389  Biso   1.000  O
  O49      1.0000 0.66137  0.52386  0.64061  Biso   1.000  O
  O50      1.0000 0.66137  0.52386  0.51393  Biso   1.000  O
  O51      1.0000 0.27809  0.01390  0.02389  Biso   1.000  O
  O52      1.0000 0.15141  0.14058  0.02389  Biso   1.000  O
  O53      1.0000 0.15141  0.52386  0.02389  Biso   1.000  O
  O54      1.0000 0.27809  0.52386  0.02389  Biso   1.000  O
  O55      1.0000 0.66137  0.01390  0.64061  Biso   1.000  O
  O56      1.0000 0.66137  0.14058  0.51394  Biso   1.000  O
  O57      1.0000 0.07499  0.66231  0.44013  Biso   1.000  O
  O58      1.0000 0.13276  0.60454  0.49790  Biso   1.000  O
  O59      1.0000 0.79720  0.94010  0.16235  Biso   1.000  O
  O60      1.0000 0.73943  0.99787  0.10458  Biso   1.000  O
  O61      1.0000 0.79720  0.94010  0.44013  Biso   1.000  O
  O62      1.0000 0.73943  0.99787  0.49790  Biso   1.000  O
  O63      1.0000 0.07499  0.66231  0.16235  Biso   1.000  O
  O64      1.0000 0.13276  0.60454  0.10458  Biso   1.000  O
  O65      1.0000 0.07499  0.94010  0.16235  Biso   1.000  O
  O66      1.0000 0.13276  0.99787  0.10458  Biso   1.000  O
  O67      1.0000 0.79720  0.66231  0.44013  Biso   1.000  O
  O68      1.0000 0.73943  0.60454  0.49790  Biso   1.000  O
  O69      1.0000 0.30113  0.43879  0.66104  Biso   1.000  O
  O70      1.0000 0.24336  0.49656  0.60327  Biso   1.000  O
  O71      1.0000 0.57892  0.16100  0.93882  Biso   1.000  O
  O72      1.0000 0.63669  0.10323  0.99659  Biso   1.000  O
  O73      1.0000 0.57892  0.43879  0.66104  Biso   1.000  O
  O74      1.0000 0.63669  0.49656  0.60327  Biso   1.000  O
  O75      1.0000 0.30113  0.16100  0.93882  Biso   1.000  O
  O76      1.0000 0.24336  0.10323  0.99659  Biso   1.000  O
  O77      1.0000 0.30113  0.43879  0.93882  Biso   1.000  O
  O78      1.0000 0.24336  0.49656  0.99659  Biso   1.000  O
  O79      1.0000 0.57892  0.16100  0.66104  Biso   1.000  O
  O80      1.0000 0.63669  0.10323  0.60327  Biso   1.000  O
  O81      1.0000 0.93609  0.80121  0.30124  Biso   1.000  O
  O82      1.0000 0.44002  0.29990  0.79993  Biso   1.000  O
  O83      1.0000 0.99158  0.68466  0.47884  Biso   1.000  O
  O84      1.0000 0.11370  0.68466  0.35672  Biso   1.000  O
  O85      1.0000 0.81955  0.85669  0.18469  Biso   1.000  O
  O86      1.0000 0.81955  0.97881  0.18469  Biso   1.000  O
  O87      1.0000 0.81955  0.97881  0.35672  Biso   1.000  O
  O88      1.0000 0.81955  0.85669  0.47884  Biso   1.000  O
  O89      1.0000 0.99158  0.68466  0.18469  Biso   1.000  O
  O90      1.0000 0.11370  0.68466  0.18469  Biso   1.000  O
  O91      1.0000 0.11370  0.85669  0.18469  Biso   1.000  O
  O92      1.0000 0.99158  0.97881  0.18469  Biso   1.000  O
  O93      1.0000 0.81955  0.68466  0.35672  Biso   1.000  O
  O94      1.0000 0.81955  0.68466  0.47884  Biso   1.000  O
  O95      1.0000 0.38454  0.41644  0.62232  Biso   1.000  O
  O96      1.0000 0.26242  0.41644  0.74444  Biso   1.000  O
  O97      1.0000 0.55657  0.12229  0.91647  Biso   1.000  O
  O98      1.0000 0.55657  0.24441  0.91647  Biso   1.000  O
  O99      1.0000 0.55657  0.41644  0.74444  Biso   1.000  O
  O100     1.0000 0.55657  0.41644  0.62232  Biso   1.000  O
  O101     1.0000 0.38454  0.12229  0.91647  Biso   1.000  O
  O102     1.0000 0.26242  0.24441  0.91647  Biso   1.000  O
  O103     1.0000 0.26242  0.41644  0.91647  Biso   1.000  O
  O104     1.0000 0.38454  0.41644  0.91647  Biso   1.000  O
  O105     1.0000 0.55657  0.12229  0.74444  Biso   1.000  O
  O106     1.0000 0.55657  0.24441  0.62232  Biso   1.000  O
