data_image0
_cell_length_a       18.2704
_cell_length_b       18.2704
_cell_length_c       18.2704
_cell_angle_alpha    60
_cell_angle_beta     60
_cell_angle_gamma    60

_symmetry_space_group_name_H-M    "P 1"
_symmetry_int_tables_number       1

loop_
  _symmetry_equiv_pos_as_xyz
  'x, y, z'

loop_
  _atom_site_label
  _atom_site_occupancy
  _atom_site_fract_x
  _atom_site_fract_y
  _atom_site_fract_z
  _atom_site_thermal_displace_type
  _atom_site_B_iso_or_equiv
  _atom_site_type_symbol
  Zn1      1.0000 0.29350  0.29349  0.11952  Biso   1.000  Zn
  Zn2      1.0000 0.29350  0.29349  0.29349  Biso   1.000  Zn
  Zn3      1.0000 0.11953  0.29349  0.29349  Biso   1.000  Zn
  Zn4      1.0000 0.29350  0.11952  0.29349  Biso   1.000  Zn
  Zn5      1.0000 0.70650  0.70651  0.88048  Biso   1.000  Zn
  Zn6      1.0000 0.70650  0.70651  0.70651  Biso   1.000  Zn
  Zn7      1.0000 0.70650  0.88048  0.70651  Biso   1.000  Zn
  Zn8      1.0000 0.88047  0.70651  0.70651  Biso   1.000  Zn
  H1       1.0000 0.45540  0.45540  0.93560  Biso   1.000  H
  H2       1.0000 0.45540  0.45540  0.15360  Biso   1.000  H
  H3       1.0000 0.93560  0.15360  0.45540  Biso   1.000  H
  H4       1.0000 0.15360  0.93560  0.45540  Biso   1.000  H
  H5       1.0000 0.45540  0.93560  0.15360  Biso   1.000  H
  H6       1.0000 0.45540  0.15360  0.93560  Biso   1.000  H
  H7       1.0000 0.93560  0.45540  0.45540  Biso   1.000  H
  H8       1.0000 0.15360  0.45540  0.45540  Biso   1.000  H
  H9       1.0000 0.45540  0.15360  0.45540  Biso   1.000  H
  H10      1.0000 0.45540  0.93560  0.45540  Biso   1.000  H
  H11      1.0000 0.93560  0.45540  0.15360  Biso   1.000  H
  H12      1.0000 0.15360  0.45540  0.93560  Biso   1.000  H
  H13      1.0000 0.54460  0.54460  0.06440  Biso   1.000  H
  H14      1.0000 0.54460  0.54460  0.84640  Biso   1.000  H
  H15      1.0000 0.84640  0.06440  0.54460  Biso   1.000  H
  H16      1.0000 0.06440  0.84640  0.54460  Biso   1.000  H
  H17      1.0000 0.06440  0.54460  0.84640  Biso   1.000  H
  H18      1.0000 0.84640  0.54460  0.06440  Biso   1.000  H
  H19      1.0000 0.54460  0.06440  0.54460  Biso   1.000  H
  H20      1.0000 0.54460  0.84640  0.54460  Biso   1.000  H
  H21      1.0000 0.84640  0.54460  0.54460  Biso   1.000  H
  H22      1.0000 0.06440  0.54460  0.54460  Biso   1.000  H
  H23      1.0000 0.54460  0.06440  0.84640  Biso   1.000  H
  H24      1.0000 0.54460  0.84640  0.06440  Biso   1.000  H
  C1       1.0000 0.47338  0.47338  0.96238  Biso   1.000  C
  C2       1.0000 0.47338  0.47338  0.09086  Biso   1.000  C
  C3       1.0000 0.96238  0.09086  0.47338  Biso   1.000  C
  C4       1.0000 0.09086  0.96238  0.47338  Biso   1.000  C
  C5       1.0000 0.47338  0.96238  0.09086  Biso   1.000  C
  C6       1.0000 0.47338  0.09086  0.96238  Biso   1.000  C
  C7       1.0000 0.96238  0.47338  0.47338  Biso   1.000  C
  C8       1.0000 0.09086  0.47338  0.47338  Biso   1.000  C
  C9       1.0000 0.47338  0.09086  0.47338  Biso   1.000  C
  C10      1.0000 0.47338  0.96238  0.47338  Biso   1.000  C
  C11      1.0000 0.96238  0.47338  0.09086  Biso   1.000  C
  C12      1.0000 0.09086  0.47338  0.96238  Biso   1.000  C
  C13      1.0000 0.52662  0.52662  0.03762  Biso   1.000  C
  C14      1.0000 0.52662  0.52662  0.90914  Biso   1.000  C
  C15      1.0000 0.90914  0.03762  0.52662  Biso   1.000  C
  C16      1.0000 0.03762  0.90914  0.52662  Biso   1.000  C
  C17      1.0000 0.03762  0.52662  0.90914  Biso   1.000  C
  C18      1.0000 0.90914  0.52662  0.03762  Biso   1.000  C
  C19      1.0000 0.52662  0.03762  0.52662  Biso   1.000  C
  C20      1.0000 0.52662  0.90914  0.52662  Biso   1.000  C
  C21      1.0000 0.90914  0.52662  0.52662  Biso   1.000  C
  C22      1.0000 0.03762  0.52662  0.52662  Biso   1.000  C
  C23      1.0000 0.52662  0.03762  0.90914  Biso   1.000  C
  C24      1.0000 0.52662  0.90914  0.03762  Biso   1.000  C
  C25      1.0000 0.38861  0.38861  0.11139  Biso   1.000  C
  C26      1.0000 0.44619  0.44619  0.05381  Biso   1.000  C
  C27      1.0000 0.11139  0.11139  0.38861  Biso   1.000  C
  C28      1.0000 0.05381  0.05381  0.44619  Biso   1.000  C
  C29      1.0000 0.38861  0.11139  0.11139  Biso   1.000  C
  C30      1.0000 0.44619  0.05381  0.05381  Biso   1.000  C
  C31      1.0000 0.11139  0.38861  0.38861  Biso   1.000  C
  C32      1.0000 0.05381  0.44619  0.44619  Biso   1.000  C
  C33      1.0000 0.38861  0.11139  0.38861  Biso   1.000  C
  C34      1.0000 0.44619  0.05381  0.44619  Biso   1.000  C
  C35      1.0000 0.11139  0.38861  0.11139  Biso   1.000  C
  C36      1.0000 0.05381  0.44619  0.05381  Biso   1.000  C
  C37      1.0000 0.61139  0.61139  0.88861  Biso   1.000  C
  C38      1.0000 0.55381  0.55381  0.94619  Biso   1.000  C
  C39      1.0000 0.88861  0.88861  0.61139  Biso   1.000  C
  C40      1.0000 0.94619  0.94619  0.55381  Biso   1.000  C
  C41      1.0000 0.88861  0.61139  0.88861  Biso   1.000  C
  C42      1.0000 0.94619  0.55381  0.94619  Biso   1.000  C
  C43      1.0000 0.61139  0.88861  0.61139  Biso   1.000  C
  C44      1.0000 0.55381  0.94619  0.55381  Biso   1.000  C
  C45      1.0000 0.88861  0.61139  0.61139  Biso   1.000  C
  C46      1.0000 0.94619  0.55381  0.55381  Biso   1.000  C
  C47      1.0000 0.61139  0.88861  0.88861  Biso   1.000  C
  C48      1.0000 0.55381  0.94619  0.94619  Biso   1.000  C
  O1       1.0000 0.25000  0.25000  0.25000  Biso   1.000  O
  O2       1.0000 0.75000  0.75000  0.75000  Biso   1.000  O
  O3       1.0000 0.36607  0.36607  0.07299  Biso   1.000  O
  O4       1.0000 0.36607  0.36607  0.19487  Biso   1.000  O
  O5       1.0000 0.07299  0.19487  0.36607  Biso   1.000  O
  O6       1.0000 0.19487  0.07299  0.36607  Biso   1.000  O
  O7       1.0000 0.36607  0.07299  0.19487  Biso   1.000  O
  O8       1.0000 0.36607  0.19487  0.07299  Biso   1.000  O
  O9       1.0000 0.07299  0.36607  0.36607  Biso   1.000  O
  O10      1.0000 0.19487  0.36607  0.36607  Biso   1.000  O
  O11      1.0000 0.36607  0.19487  0.36607  Biso   1.000  O
  O12      1.0000 0.36607  0.07299  0.36607  Biso   1.000  O
  O13      1.0000 0.07299  0.36607  0.19487  Biso   1.000  O
  O14      1.0000 0.19487  0.36607  0.07299  Biso   1.000  O
  O15      1.0000 0.63393  0.63393  0.92701  Biso   1.000  O
  O16      1.0000 0.63393  0.63393  0.80513  Biso   1.000  O
  O17      1.0000 0.80513  0.92701  0.63393  Biso   1.000  O
  O18      1.0000 0.92701  0.80513  0.63393  Biso   1.000  O
  O19      1.0000 0.92701  0.63393  0.80513  Biso   1.000  O
  O20      1.0000 0.80513  0.63393  0.92701  Biso   1.000  O
  O21      1.0000 0.63393  0.92701  0.63393  Biso   1.000  O
  O22      1.0000 0.63393  0.80513  0.63393  Biso   1.000  O
  O23      1.0000 0.80513  0.63393  0.63393  Biso   1.000  O
  O24      1.0000 0.92701  0.63393  0.63393  Biso   1.000  O
  O25      1.0000 0.63393  0.92701  0.80513  Biso   1.000  O
  O26      1.0000 0.63393  0.80513  0.92701  Biso   1.000  O
  Zn9      1.0000 0.50137  0.51886  0.33426  Biso   1.000  Zn
  Zn10     1.0000 0.50137  0.51886  0.50774  Biso   1.000  Zn
  Zn11     1.0000 0.32788  0.51886  0.50774  Biso   1.000  Zn
  Zn12     1.0000 0.50137  0.34537  0.50774  Biso   1.000  Zn
  Zn13     1.0000 0.91189  0.92939  0.09176  Biso   1.000  Zn
  Zn14     1.0000 0.91189  0.92939  0.91827  Biso   1.000  Zn
  Zn15     1.0000 0.91189  0.10288  0.91827  Biso   1.000  Zn
  Zn16     1.0000 0.08538  0.92939  0.91827  Biso   1.000  Zn
  H25      1.0000 0.66267  0.68017  0.14763  Biso   1.000  H
  H26      1.0000 0.66267  0.68017  0.36631  Biso   1.000  H
  H27      1.0000 0.14125  0.37743  0.66905  Biso   1.000  H
  H28      1.0000 0.35993  0.15874  0.66905  Biso   1.000  H
  H29      1.0000 0.66267  0.15874  0.36631  Biso   1.000  H
  H30      1.0000 0.66267  0.37743  0.14763  Biso   1.000  H
  H31      1.0000 0.14125  0.68017  0.66905  Biso   1.000  H
  H32      1.0000 0.35993  0.68017  0.66905  Biso   1.000  H
  H33      1.0000 0.66267  0.37743  0.66905  Biso   1.000  H
  H34      1.0000 0.66267  0.15874  0.66905  Biso   1.000  H
  H35      1.0000 0.14125  0.68017  0.36631  Biso   1.000  H
  H36      1.0000 0.35993  0.68017  0.14763  Biso   1.000  H
  H37      1.0000 0.75059  0.76808  0.27839  Biso   1.000  H
  H38      1.0000 0.75059  0.76808  0.05971  Biso   1.000  H
  H39      1.0000 0.05333  0.28951  0.75697  Biso   1.000  H
  H40      1.0000 0.27201  0.07082  0.75697  Biso   1.000  H
  H41      1.0000 0.27201  0.76808  0.05971  Biso   1.000  H
  H42      1.0000 0.05333  0.76808  0.27839  Biso   1.000  H
  H43      1.0000 0.75059  0.28951  0.75697  Biso   1.000  H
  H44      1.0000 0.75059  0.07082  0.75697  Biso   1.000  H
  H45      1.0000 0.05333  0.76808  0.75697  Biso   1.000  H
  H46      1.0000 0.27201  0.76808  0.75697  Biso   1.000  H
  H47      1.0000 0.75059  0.28951  0.05971  Biso   1.000  H
  H48      1.0000 0.75059  0.07082  0.27839  Biso   1.000  H
  C49      1.0000 0.68028  0.69777  0.17438  Biso   1.000  C
  C50      1.0000 0.68028  0.69777  0.30435  Biso   1.000  C
  C51      1.0000 0.16800  0.31547  0.68665  Biso   1.000  C
  C52      1.0000 0.29797  0.18549  0.68665  Biso   1.000  C
  C53      1.0000 0.68028  0.18549  0.30435  Biso   1.000  C
  C54      1.0000 0.68028  0.31547  0.17438  Biso   1.000  C
  C55      1.0000 0.16800  0.69777  0.68665  Biso   1.000  C
  C56      1.0000 0.29797  0.69777  0.68665  Biso   1.000  C
  C57      1.0000 0.68028  0.31547  0.68665  Biso   1.000  C
  C58      1.0000 0.68028  0.18549  0.68665  Biso   1.000  C
  C59      1.0000 0.16800  0.69777  0.30435  Biso   1.000  C
  C60      1.0000 0.29797  0.69777  0.17438  Biso   1.000  C
  C61      1.0000 0.73299  0.75048  0.25164  Biso   1.000  C
  C62      1.0000 0.73299  0.75048  0.12167  Biso   1.000  C
  C63      1.0000 0.11529  0.26276  0.73936  Biso   1.000  C
  C64      1.0000 0.24526  0.13278  0.73936  Biso   1.000  C
  C65      1.0000 0.24526  0.75048  0.12167  Biso   1.000  C
  C66      1.0000 0.11529  0.75048  0.25164  Biso   1.000  C
  C67      1.0000 0.73299  0.26276  0.73936  Biso   1.000  C
  C68      1.0000 0.73299  0.13278  0.73936  Biso   1.000  C
  C69      1.0000 0.11529  0.75048  0.73936  Biso   1.000  C
  C70      1.0000 0.24526  0.75048  0.73936  Biso   1.000  C
  C71      1.0000 0.73299  0.26276  0.12167  Biso   1.000  C
  C72      1.0000 0.73299  0.13278  0.25164  Biso   1.000  C
  C73      1.0000 0.59574  0.61323  0.32663  Biso   1.000  C
  C74      1.0000 0.65352  0.67102  0.26885  Biso   1.000  C
  C75      1.0000 0.32025  0.33774  0.60212  Biso   1.000  C
  C76      1.0000 0.26247  0.27996  0.65990  Biso   1.000  C
  C77      1.0000 0.59574  0.33774  0.32663  Biso   1.000  C
  C78      1.0000 0.65352  0.27996  0.26885  Biso   1.000  C
  C79      1.0000 0.32025  0.61323  0.60212  Biso   1.000  C
  C80      1.0000 0.26247  0.67102  0.65990  Biso   1.000  C
  C81      1.0000 0.59574  0.33774  0.60212  Biso   1.000  C
  C82      1.0000 0.65352  0.27996  0.65990  Biso   1.000  C
  C83      1.0000 0.32025  0.61323  0.32663  Biso   1.000  C
  C84      1.0000 0.26247  0.67102  0.26885  Biso   1.000  C
  C85      1.0000 0.81752  0.83502  0.09939  Biso   1.000  C
  C86      1.0000 0.75974  0.77723  0.15717  Biso   1.000  C
  C87      1.0000 0.09301  0.11051  0.82390  Biso   1.000  C
  C88      1.0000 0.15079  0.16829  0.76612  Biso   1.000  C
  C89      1.0000 0.09301  0.83502  0.09939  Biso   1.000  C
  C90      1.0000 0.15079  0.77723  0.15717  Biso   1.000  C
  C91      1.0000 0.81752  0.11051  0.82390  Biso   1.000  C
  C92      1.0000 0.75974  0.16829  0.76612  Biso   1.000  C
  C93      1.0000 0.09301  0.83502  0.82390  Biso   1.000  C
  C94      1.0000 0.15079  0.77723  0.76612  Biso   1.000  C
  C95      1.0000 0.81752  0.11051  0.09939  Biso   1.000  C
  C96      1.0000 0.75974  0.16829  0.15717  Biso   1.000  C
  O27      1.0000 0.45799  0.47549  0.46437  Biso   1.000  O
  O28      1.0000 0.95527  0.97276  0.96165  Biso   1.000  O
  O29      1.0000 0.57345  0.59095  0.28885  Biso   1.000  O
  O30      1.0000 0.57345  0.59095  0.40899  Biso   1.000  O
  O31      1.0000 0.28247  0.42010  0.57983  Biso   1.000  O
  O32      1.0000 0.40261  0.29996  0.57983  Biso   1.000  O
  O33      1.0000 0.57345  0.29996  0.40899  Biso   1.000  O
  O34      1.0000 0.57345  0.42010  0.28885  Biso   1.000  O
  O35      1.0000 0.28247  0.59095  0.57983  Biso   1.000  O
  O36      1.0000 0.40261  0.59095  0.57983  Biso   1.000  O
  O37      1.0000 0.57345  0.42010  0.57983  Biso   1.000  O
  O38      1.0000 0.57345  0.29996  0.57983  Biso   1.000  O
  O39      1.0000 0.28247  0.59095  0.40899  Biso   1.000  O
  O40      1.0000 0.40261  0.59095  0.28885  Biso   1.000  O
  O41      1.0000 0.83981  0.85730  0.13717  Biso   1.000  O
  O42      1.0000 0.83981  0.85730  0.01703  Biso   1.000  O
  O43      1.0000 0.01065  0.14829  0.84619  Biso   1.000  O
  O44      1.0000 0.13079  0.02815  0.84619  Biso   1.000  O
  O45      1.0000 0.13079  0.85730  0.01703  Biso   1.000  O
  O46      1.0000 0.01065  0.85730  0.13717  Biso   1.000  O
  O47      1.0000 0.83981  0.14829  0.84619  Biso   1.000  O
  O48      1.0000 0.83981  0.02815  0.84619  Biso   1.000  O
  O49      1.0000 0.01065  0.85730  0.84619  Biso   1.000  O
  O50      1.0000 0.13079  0.85730  0.84619  Biso   1.000  O
  O51      1.0000 0.83981  0.14829  0.01703  Biso   1.000  O
  O52      1.0000 0.83981  0.02815  0.13717  Biso   1.000  O
