data_image0
_cell_length_a       18.2704
_cell_length_b       18.2704
_cell_length_c       18.2704
_cell_angle_alpha    60
_cell_angle_beta     60
_cell_angle_gamma    60

_symmetry_space_group_name_H-M    "P 1"
_symmetry_int_tables_number       1

loop_
  _symmetry_equiv_pos_as_xyz
  'x, y, z'

loop_
  _atom_site_label
  _atom_site_occupancy
  _atom_site_fract_x
  _atom_site_fract_y
  _atom_site_fract_z
  _atom_site_thermal_displace_type
  _atom_site_B_iso_or_equiv
  _atom_site_type_symbol
  C1       1.0000 0.29350  0.29349  0.11952  Biso   1.000  C
  C2       1.0000 0.29350  0.29349  0.29349  Biso   1.000  C
  C3       1.0000 0.11953  0.29349  0.29349  Biso   1.000  C
  C4       1.0000 0.29350  0.11952  0.29349  Biso   1.000  C
  C5       1.0000 0.70650  0.70651  0.88048  Biso   1.000  C
  C6       1.0000 0.70650  0.70651  0.70651  Biso   1.000  C
  C7       1.0000 0.70650  0.88048  0.70651  Biso   1.000  C
  C8       1.0000 0.88047  0.70651  0.70651  Biso   1.000  C
  C9       1.0000 0.45540  0.45540  0.93560  Biso   1.000  C
  C10      1.0000 0.45540  0.45540  0.15360  Biso   1.000  C
  C11      1.0000 0.93560  0.15360  0.45540  Biso   1.000  C
  C12      1.0000 0.15360  0.93560  0.45540  Biso   1.000  C
  C13      1.0000 0.45540  0.93560  0.15360  Biso   1.000  C
  C14      1.0000 0.45540  0.15360  0.93560  Biso   1.000  C
  C15      1.0000 0.93560  0.45540  0.45540  Biso   1.000  C
  C16      1.0000 0.15360  0.45540  0.45540  Biso   1.000  C
  C17      1.0000 0.45540  0.15360  0.45540  Biso   1.000  C
  C18      1.0000 0.45540  0.93560  0.45540  Biso   1.000  C
  C19      1.0000 0.93560  0.45540  0.15360  Biso   1.000  C
  C20      1.0000 0.15360  0.45540  0.93560  Biso   1.000  C
  C21      1.0000 0.54460  0.54460  0.06440  Biso   1.000  C
  C22      1.0000 0.54460  0.54460  0.84640  Biso   1.000  C
  C23      1.0000 0.84640  0.06440  0.54460  Biso   1.000  C
  C24      1.0000 0.06440  0.84640  0.54460  Biso   1.000  C
  C25      1.0000 0.06440  0.54460  0.84640  Biso   1.000  C
  C26      1.0000 0.84640  0.54460  0.06440  Biso   1.000  C
  C27      1.0000 0.54460  0.06440  0.54460  Biso   1.000  C
  C28      1.0000 0.54460  0.84640  0.54460  Biso   1.000  C
  C29      1.0000 0.84640  0.54460  0.54460  Biso   1.000  C
  C30      1.0000 0.06440  0.54460  0.54460  Biso   1.000  C
  C31      1.0000 0.54460  0.06440  0.84640  Biso   1.000  C
  C32      1.0000 0.54460  0.84640  0.06440  Biso   1.000  C
  C33      1.0000 0.47338  0.47338  0.96238  Biso   1.000  C
  C34      1.0000 0.47338  0.47338  0.09086  Biso   1.000  C
  C35      1.0000 0.96238  0.09086  0.47338  Biso   1.000  C
  C36      1.0000 0.09086  0.96238  0.47338  Biso   1.000  C
  C37      1.0000 0.47338  0.96238  0.09086  Biso   1.000  C
  C38      1.0000 0.47338  0.09086  0.96238  Biso   1.000  C
  C39      1.0000 0.96238  0.47338  0.47338  Biso   1.000  C
  C40      1.0000 0.09086  0.47338  0.47338  Biso   1.000  C
  C41      1.0000 0.47338  0.09086  0.47338  Biso   1.000  C
  C42      1.0000 0.47338  0.96238  0.47338  Biso   1.000  C
  C43      1.0000 0.96238  0.47338  0.09086  Biso   1.000  C
  C44      1.0000 0.09086  0.47338  0.96238  Biso   1.000  C
  C45      1.0000 0.52662  0.52662  0.03762  Biso   1.000  C
  C46      1.0000 0.52662  0.52662  0.90914  Biso   1.000  C
  C47      1.0000 0.90914  0.03762  0.52662  Biso   1.000  C
  C48      1.0000 0.03762  0.90914  0.52662  Biso   1.000  C
  C49      1.0000 0.03762  0.52662  0.90914  Biso   1.000  C
  C50      1.0000 0.90914  0.52662  0.03762  Biso   1.000  C
  C51      1.0000 0.52662  0.03762  0.52662  Biso   1.000  C
  C52      1.0000 0.52662  0.90914  0.52662  Biso   1.000  C
  C53      1.0000 0.90914  0.52662  0.52662  Biso   1.000  C
  C54      1.0000 0.03762  0.52662  0.52662  Biso   1.000  C
  C55      1.0000 0.52662  0.03762  0.90914  Biso   1.000  C
  C56      1.0000 0.52662  0.90914  0.03762  Biso   1.000  C
  C57      1.0000 0.38861  0.38861  0.11139  Biso   1.000  C
  C58      1.0000 0.44619  0.44619  0.05381  Biso   1.000  C
  C59      1.0000 0.11139  0.11139  0.38861  Biso   1.000  C
  C60      1.0000 0.05381  0.05381  0.44619  Biso   1.000  C
  C61      1.0000 0.38861  0.11139  0.11139  Biso   1.000  C
  C62      1.0000 0.44619  0.05381  0.05381  Biso   1.000  C
  C63      1.0000 0.11139  0.38861  0.38861  Biso   1.000  C
  C64      1.0000 0.05381  0.44619  0.44619  Biso   1.000  C
  C65      1.0000 0.38861  0.11139  0.38861  Biso   1.000  C
  C66      1.0000 0.44619  0.05381  0.44619  Biso   1.000  C
  C67      1.0000 0.11139  0.38861  0.11139  Biso   1.000  C
  C68      1.0000 0.05381  0.44619  0.05381  Biso   1.000  C
  C69      1.0000 0.61139  0.61139  0.88861  Biso   1.000  C
  C70      1.0000 0.55381  0.55381  0.94619  Biso   1.000  C
  C71      1.0000 0.88861  0.88861  0.61139  Biso   1.000  C
  C72      1.0000 0.94619  0.94619  0.55381  Biso   1.000  C
  C73      1.0000 0.88861  0.61139  0.88861  Biso   1.000  C
  C74      1.0000 0.94619  0.55381  0.94619  Biso   1.000  C
  C75      1.0000 0.61139  0.88861  0.61139  Biso   1.000  C
  C76      1.0000 0.55381  0.94619  0.55381  Biso   1.000  C
  C77      1.0000 0.88861  0.61139  0.61139  Biso   1.000  C
  C78      1.0000 0.94619  0.55381  0.55381  Biso   1.000  C
  C79      1.0000 0.61139  0.88861  0.88861  Biso   1.000  C
  C80      1.0000 0.55381  0.94619  0.94619  Biso   1.000  C
  C81      1.0000 0.25000  0.25000  0.25000  Biso   1.000  C
  C82      1.0000 0.75000  0.75000  0.75000  Biso   1.000  C
  C83      1.0000 0.36607  0.36607  0.07299  Biso   1.000  C
  C84      1.0000 0.36607  0.36607  0.19487  Biso   1.000  C
  C85      1.0000 0.07299  0.19487  0.36607  Biso   1.000  C
  C86      1.0000 0.19487  0.07299  0.36607  Biso   1.000  C
  C87      1.0000 0.36607  0.07299  0.19487  Biso   1.000  C
  C88      1.0000 0.36607  0.19487  0.07299  Biso   1.000  C
  C89      1.0000 0.07299  0.36607  0.36607  Biso   1.000  C
  C90      1.0000 0.19487  0.36607  0.36607  Biso   1.000  C
  C91      1.0000 0.36607  0.19487  0.36607  Biso   1.000  C
  C92      1.0000 0.36607  0.07299  0.36607  Biso   1.000  C
  C93      1.0000 0.07299  0.36607  0.19487  Biso   1.000  C
  C94      1.0000 0.19487  0.36607  0.07299  Biso   1.000  C
  C95      1.0000 0.63393  0.63393  0.92701  Biso   1.000  C
  C96      1.0000 0.63393  0.63393  0.80513  Biso   1.000  C
  C97      1.0000 0.80513  0.92701  0.63393  Biso   1.000  C
  C98      1.0000 0.92701  0.80513  0.63393  Biso   1.000  C
  C99      1.0000 0.92701  0.63393  0.80513  Biso   1.000  C
  C100     1.0000 0.80513  0.63393  0.92701  Biso   1.000  C
  C101     1.0000 0.63393  0.92701  0.63393  Biso   1.000  C
  C102     1.0000 0.63393  0.80513  0.63393  Biso   1.000  C
  C103     1.0000 0.80513  0.63393  0.63393  Biso   1.000  C
  C104     1.0000 0.92701  0.63393  0.63393  Biso   1.000  C
  C105     1.0000 0.63393  0.92701  0.80513  Biso   1.000  C
  C106     1.0000 0.63393  0.80513  0.92701  Biso   1.000  C
  O1       1.0000 0.50262  0.52016  0.33509  Biso   1.000  O
  O2       1.0000 0.50262  0.52016  0.50910  Biso   1.000  O
  O3       1.0000 0.32861  0.52016  0.50910  Biso   1.000  O
  O4       1.0000 0.50262  0.34615  0.50910  Biso   1.000  O
  O5       1.0000 0.91537  0.93293  0.09588  Biso   1.000  O
  O6       1.0000 0.91537  0.93293  0.92187  Biso   1.000  O
  O7       1.0000 0.91537  0.10694  0.92187  Biso   1.000  O
  O8       1.0000 0.08938  0.93293  0.92187  Biso   1.000  O
  O9       1.0000 0.66472  0.68227  0.15119  Biso   1.000  O
  O10      1.0000 0.66472  0.68227  0.36835  Biso   1.000  O
  O11      1.0000 0.14470  0.37941  0.67121  Biso   1.000  O
  O12      1.0000 0.36186  0.16225  0.67121  Biso   1.000  O
  O13      1.0000 0.66472  0.16225  0.36835  Biso   1.000  O
  O14      1.0000 0.66472  0.37941  0.15119  Biso   1.000  O
  O15      1.0000 0.14470  0.68227  0.67121  Biso   1.000  O
  O16      1.0000 0.36186  0.68227  0.67121  Biso   1.000  O
  O17      1.0000 0.66472  0.37941  0.67121  Biso   1.000  O
  O18      1.0000 0.66472  0.16225  0.67121  Biso   1.000  O
  O19      1.0000 0.14470  0.68227  0.36835  Biso   1.000  O
  O20      1.0000 0.36186  0.68227  0.15119  Biso   1.000  O
  O21      1.0000 0.75328  0.77083  0.27979  Biso   1.000  O
  O22      1.0000 0.75328  0.77083  0.06263  Biso   1.000  O
  O23      1.0000 0.05614  0.29085  0.75977  Biso   1.000  O
  O24      1.0000 0.27330  0.07369  0.75977  Biso   1.000  O
  O25      1.0000 0.27330  0.77083  0.06263  Biso   1.000  O
  O26      1.0000 0.05614  0.77083  0.27979  Biso   1.000  O
  O27      1.0000 0.75328  0.29085  0.75977  Biso   1.000  O
  O28      1.0000 0.75328  0.07369  0.75977  Biso   1.000  O
  O29      1.0000 0.05614  0.77083  0.75977  Biso   1.000  O
  O30      1.0000 0.27330  0.77083  0.75977  Biso   1.000  O
  O31      1.0000 0.75328  0.29085  0.06263  Biso   1.000  O
  O32      1.0000 0.75328  0.07369  0.27979  Biso   1.000  O
  O33      1.0000 0.68243  0.69998  0.17774  Biso   1.000  O
  O34      1.0000 0.68243  0.69998  0.30638  Biso   1.000  O
  O35      1.0000 0.17125  0.31744  0.68892  Biso   1.000  O
  O36      1.0000 0.29989  0.18880  0.68892  Biso   1.000  O
  O37      1.0000 0.68243  0.18880  0.30638  Biso   1.000  O
  O38      1.0000 0.68243  0.31744  0.17774  Biso   1.000  O
  O39      1.0000 0.17125  0.69998  0.68892  Biso   1.000  O
  O40      1.0000 0.29989  0.69998  0.68892  Biso   1.000  O
  O41      1.0000 0.68243  0.31744  0.68892  Biso   1.000  O
  O42      1.0000 0.68243  0.18880  0.68892  Biso   1.000  O
  O43      1.0000 0.17125  0.69998  0.30638  Biso   1.000  O
  O44      1.0000 0.29989  0.69998  0.17774  Biso   1.000  O
  O45      1.0000 0.73557  0.75312  0.25324  Biso   1.000  O
  O46      1.0000 0.73557  0.75312  0.12460  Biso   1.000  O
  O47      1.0000 0.11811  0.26430  0.74206  Biso   1.000  O
  O48      1.0000 0.24675  0.13566  0.74206  Biso   1.000  O
  O49      1.0000 0.24675  0.75312  0.12460  Biso   1.000  O
  O50      1.0000 0.11811  0.75312  0.25324  Biso   1.000  O
  O51      1.0000 0.73557  0.26430  0.74206  Biso   1.000  O
  O52      1.0000 0.73557  0.13566  0.74206  Biso   1.000  O
  O53      1.0000 0.11811  0.75312  0.74206  Biso   1.000  O
  O54      1.0000 0.24675  0.75312  0.74206  Biso   1.000  O
  O55      1.0000 0.73557  0.26430  0.12460  Biso   1.000  O
  O56      1.0000 0.73557  0.13566  0.25324  Biso   1.000  O
  O57      1.0000 0.59763  0.61518  0.32709  Biso   1.000  O
  O58      1.0000 0.65527  0.67282  0.26945  Biso   1.000  O
  O59      1.0000 0.32060  0.33815  0.60412  Biso   1.000  O
  O60      1.0000 0.26295  0.28050  0.66176  Biso   1.000  O
  O61      1.0000 0.59763  0.33815  0.32709  Biso   1.000  O
  O62      1.0000 0.65527  0.28050  0.26945  Biso   1.000  O
  O63      1.0000 0.32060  0.61518  0.60412  Biso   1.000  O
  O64      1.0000 0.26295  0.67282  0.66176  Biso   1.000  O
  O65      1.0000 0.59763  0.33815  0.60412  Biso   1.000  O
  O66      1.0000 0.65527  0.28050  0.66176  Biso   1.000  O
  O67      1.0000 0.32060  0.61518  0.32709  Biso   1.000  O
  O68      1.0000 0.26295  0.67282  0.26945  Biso   1.000  O
  O69      1.0000 0.82037  0.83792  0.10389  Biso   1.000  O
  O70      1.0000 0.76272  0.78027  0.16153  Biso   1.000  O
  O71      1.0000 0.09740  0.11495  0.82686  Biso   1.000  O
  O72      1.0000 0.15504  0.17259  0.76922  Biso   1.000  O
  O73      1.0000 0.09740  0.83792  0.10389  Biso   1.000  O
  O74      1.0000 0.15504  0.78027  0.16153  Biso   1.000  O
  O75      1.0000 0.82037  0.11495  0.82686  Biso   1.000  O
  O76      1.0000 0.76272  0.17259  0.76922  Biso   1.000  O
  O77      1.0000 0.09740  0.83792  0.82686  Biso   1.000  O
  O78      1.0000 0.15504  0.78027  0.76922  Biso   1.000  O
  O79      1.0000 0.82037  0.11495  0.10389  Biso   1.000  O
  O80      1.0000 0.76272  0.17259  0.16153  Biso   1.000  O
  O81      1.0000 0.45911  0.47666  0.46560  Biso   1.000  O
  O82      1.0000 0.95888  0.97643  0.96537  Biso   1.000  O
  O83      1.0000 0.57523  0.59278  0.28856  Biso   1.000  O
  O84      1.0000 0.57523  0.59278  0.41042  Biso   1.000  O
  O85      1.0000 0.28207  0.42148  0.58172  Biso   1.000  O
  O86      1.0000 0.40393  0.29961  0.58172  Biso   1.000  O
  O87      1.0000 0.57523  0.29961  0.41042  Biso   1.000  O
  O88      1.0000 0.57523  0.42148  0.28856  Biso   1.000  O
  O89      1.0000 0.28207  0.59278  0.58172  Biso   1.000  O
  O90      1.0000 0.40393  0.59278  0.58172  Biso   1.000  O
  O91      1.0000 0.57523  0.42148  0.58172  Biso   1.000  O
  O92      1.0000 0.57523  0.29961  0.58172  Biso   1.000  O
  O93      1.0000 0.28207  0.59278  0.41042  Biso   1.000  O
  O94      1.0000 0.40393  0.59278  0.28856  Biso   1.000  O
  O95      1.0000 0.84277  0.86032  0.14242  Biso   1.000  O
  O96      1.0000 0.84277  0.86032  0.02056  Biso   1.000  O
  O97      1.0000 0.01407  0.15348  0.84926  Biso   1.000  O
  O98      1.0000 0.13593  0.03162  0.84926  Biso   1.000  O
  O99      1.0000 0.13593  0.86032  0.02056  Biso   1.000  O
  O100     1.0000 0.01407  0.86032  0.14242  Biso   1.000  O
  O101     1.0000 0.84277  0.15348  0.84926  Biso   1.000  O
  O102     1.0000 0.84277  0.03162  0.84926  Biso   1.000  O
  O103     1.0000 0.01407  0.86032  0.84926  Biso   1.000  O
  O104     1.0000 0.13593  0.86032  0.84926  Biso   1.000  O
  O105     1.0000 0.84277  0.15348  0.02056  Biso   1.000  O
  O106     1.0000 0.84277  0.03162  0.14242  Biso   1.000  O
