data_image0
_cell_length_a       18.2115
_cell_length_b       18.2115
_cell_length_c       18.2115
_cell_angle_alpha    60
_cell_angle_beta     60
_cell_angle_gamma    60

_symmetry_space_group_name_H-M    "P 1"
_symmetry_int_tables_number       1

loop_
  _symmetry_equiv_pos_as_xyz
  'x, y, z'

loop_
  _atom_site_label
  _atom_site_occupancy
  _atom_site_fract_x
  _atom_site_fract_y
  _atom_site_fract_z
  _atom_site_thermal_displace_type
  _atom_site_B_iso_or_equiv
  _atom_site_type_symbol
  Zn1      1.0000 0.29361  0.29361  0.11917  Biso   1.000  Zn
  Zn2      1.0000 0.29361  0.29361  0.29361  Biso   1.000  Zn
  Zn3      1.0000 0.11917  0.29361  0.29361  Biso   1.000  Zn
  Zn4      1.0000 0.29361  0.11917  0.29361  Biso   1.000  Zn
  Zn5      1.0000 0.70639  0.70639  0.88083  Biso   1.000  Zn
  Zn6      1.0000 0.70639  0.70639  0.70639  Biso   1.000  Zn
  Zn7      1.0000 0.70639  0.88083  0.70639  Biso   1.000  Zn
  Zn8      1.0000 0.88083  0.70639  0.70639  Biso   1.000  Zn
  H1       1.0000 0.45530  0.45530  0.93770  Biso   1.000  H
  H2       1.0000 0.45530  0.45530  0.15170  Biso   1.000  H
  H3       1.0000 0.93770  0.15170  0.45530  Biso   1.000  H
  H4       1.0000 0.15170  0.93770  0.45530  Biso   1.000  H
  H5       1.0000 0.45530  0.93770  0.15170  Biso   1.000  H
  H6       1.0000 0.45530  0.15170  0.93770  Biso   1.000  H
  H7       1.0000 0.93770  0.45530  0.45530  Biso   1.000  H
  H8       1.0000 0.15170  0.45530  0.45530  Biso   1.000  H
  H9       1.0000 0.45530  0.15170  0.45530  Biso   1.000  H
  H10      1.0000 0.45530  0.93770  0.45530  Biso   1.000  H
  H11      1.0000 0.93770  0.45530  0.15170  Biso   1.000  H
  H12      1.0000 0.15170  0.45530  0.93770  Biso   1.000  H
  H13      1.0000 0.54470  0.54470  0.06230  Biso   1.000  H
  H14      1.0000 0.54470  0.54470  0.84830  Biso   1.000  H
  H15      1.0000 0.84830  0.06230  0.54470  Biso   1.000  H
  H16      1.0000 0.06230  0.84830  0.54470  Biso   1.000  H
  H17      1.0000 0.06230  0.54470  0.84830  Biso   1.000  H
  H18      1.0000 0.84830  0.54470  0.06230  Biso   1.000  H
  H19      1.0000 0.54470  0.06230  0.54470  Biso   1.000  H
  H20      1.0000 0.54470  0.84830  0.54470  Biso   1.000  H
  H21      1.0000 0.84830  0.54470  0.54470  Biso   1.000  H
  H22      1.0000 0.06230  0.54470  0.54470  Biso   1.000  H
  H23      1.0000 0.54470  0.06230  0.84830  Biso   1.000  H
  H24      1.0000 0.54470  0.84830  0.06230  Biso   1.000  H
  C1       1.0000 0.47300  0.47300  0.96450  Biso   1.000  C
  C2       1.0000 0.47300  0.47300  0.08950  Biso   1.000  C
  C3       1.0000 0.96450  0.08950  0.47300  Biso   1.000  C
  C4       1.0000 0.08950  0.96450  0.47300  Biso   1.000  C
  C5       1.0000 0.47300  0.96450  0.08950  Biso   1.000  C
  C6       1.0000 0.47300  0.08950  0.96450  Biso   1.000  C
  C7       1.0000 0.96450  0.47300  0.47300  Biso   1.000  C
  C8       1.0000 0.08950  0.47300  0.47300  Biso   1.000  C
  C9       1.0000 0.47300  0.08950  0.47300  Biso   1.000  C
  C10      1.0000 0.47300  0.96450  0.47300  Biso   1.000  C
  C11      1.0000 0.96450  0.47300  0.08950  Biso   1.000  C
  C12      1.0000 0.08950  0.47300  0.96450  Biso   1.000  C
  C13      1.0000 0.52700  0.52700  0.03550  Biso   1.000  C
  C14      1.0000 0.52700  0.52700  0.91050  Biso   1.000  C
  C15      1.0000 0.91050  0.03550  0.52700  Biso   1.000  C
  C16      1.0000 0.03550  0.91050  0.52700  Biso   1.000  C
  C17      1.0000 0.03550  0.52700  0.91050  Biso   1.000  C
  C18      1.0000 0.91050  0.52700  0.03550  Biso   1.000  C
  C19      1.0000 0.52700  0.03550  0.52700  Biso   1.000  C
  C20      1.0000 0.52700  0.91050  0.52700  Biso   1.000  C
  C21      1.0000 0.91050  0.52700  0.52700  Biso   1.000  C
  C22      1.0000 0.03550  0.52700  0.52700  Biso   1.000  C
  C23      1.0000 0.52700  0.03550  0.91050  Biso   1.000  C
  C24      1.0000 0.52700  0.91050  0.03550  Biso   1.000  C
  C25      1.0000 0.38860  0.38860  0.11140  Biso   1.000  C
  C26      1.0000 0.44600  0.44600  0.05400  Biso   1.000  C
  C27      1.0000 0.11140  0.11140  0.38860  Biso   1.000  C
  C28      1.0000 0.05400  0.05400  0.44600  Biso   1.000  C
  C29      1.0000 0.38860  0.11140  0.11140  Biso   1.000  C
  C30      1.0000 0.44600  0.05400  0.05400  Biso   1.000  C
  C31      1.0000 0.11140  0.38860  0.38860  Biso   1.000  C
  C32      1.0000 0.05400  0.44600  0.44600  Biso   1.000  C
  C33      1.0000 0.38860  0.11140  0.38860  Biso   1.000  C
  C34      1.0000 0.44600  0.05400  0.44600  Biso   1.000  C
  C35      1.0000 0.11140  0.38860  0.11140  Biso   1.000  C
  C36      1.0000 0.05400  0.44600  0.05400  Biso   1.000  C
  C37      1.0000 0.61140  0.61140  0.88860  Biso   1.000  C
  C38      1.0000 0.55400  0.55400  0.94600  Biso   1.000  C
  C39      1.0000 0.88860  0.88860  0.61140  Biso   1.000  C
  C40      1.0000 0.94600  0.94600  0.55400  Biso   1.000  C
  C41      1.0000 0.88860  0.61140  0.88860  Biso   1.000  C
  C42      1.0000 0.94600  0.55400  0.94600  Biso   1.000  C
  C43      1.0000 0.61140  0.88860  0.61140  Biso   1.000  C
  C44      1.0000 0.55400  0.94600  0.55400  Biso   1.000  C
  C45      1.0000 0.88860  0.61140  0.61140  Biso   1.000  C
  C46      1.0000 0.94600  0.55400  0.55400  Biso   1.000  C
  C47      1.0000 0.61140  0.88860  0.88860  Biso   1.000  C
  C48      1.0000 0.55400  0.94600  0.94600  Biso   1.000  C
  O1       1.0000 0.25000  0.25000  0.25000  Biso   1.000  O
  O2       1.0000 0.75000  0.75000  0.75000  Biso   1.000  O
  O3       1.0000 0.36611  0.36611  0.07317  Biso   1.000  O
  O4       1.0000 0.36611  0.36611  0.19461  Biso   1.000  O
  O5       1.0000 0.07317  0.19461  0.36611  Biso   1.000  O
  O6       1.0000 0.19461  0.07317  0.36611  Biso   1.000  O
  O7       1.0000 0.36611  0.07317  0.19461  Biso   1.000  O
  O8       1.0000 0.36611  0.19461  0.07317  Biso   1.000  O
  O9       1.0000 0.07317  0.36611  0.36611  Biso   1.000  O
  O10      1.0000 0.19461  0.36611  0.36611  Biso   1.000  O
  O11      1.0000 0.36611  0.19461  0.36611  Biso   1.000  O
  O12      1.0000 0.36611  0.07317  0.36611  Biso   1.000  O
  O13      1.0000 0.07317  0.36611  0.19461  Biso   1.000  O
  O14      1.0000 0.19461  0.36611  0.07317  Biso   1.000  O
  O15      1.0000 0.63389  0.63389  0.92683  Biso   1.000  O
  O16      1.0000 0.63389  0.63389  0.80539  Biso   1.000  O
  O17      1.0000 0.80539  0.92683  0.63389  Biso   1.000  O
  O18      1.0000 0.92683  0.80539  0.63389  Biso   1.000  O
  O19      1.0000 0.92683  0.63389  0.80539  Biso   1.000  O
  O20      1.0000 0.80539  0.63389  0.92683  Biso   1.000  O
  O21      1.0000 0.63389  0.92683  0.63389  Biso   1.000  O
  O22      1.0000 0.63389  0.80539  0.63389  Biso   1.000  O
  O23      1.0000 0.80539  0.63389  0.63389  Biso   1.000  O
  O24      1.0000 0.92683  0.63389  0.63389  Biso   1.000  O
  O25      1.0000 0.63389  0.92683  0.80539  Biso   1.000  O
  O26      1.0000 0.63389  0.80539  0.92683  Biso   1.000  O
  Zn9      1.0000 0.68915  0.35108  0.47183  Biso   1.000  Zn
  Zn10     1.0000 0.09915  0.76107  0.06189  Biso   1.000  Zn
  Zn11     1.0000 0.92403  0.93619  0.06189  Biso   1.000  Zn
  Zn12     1.0000 0.51402  0.52621  0.47183  Biso   1.000  Zn
  Zn13     1.0000 0.51382  0.35088  0.64712  Biso   1.000  Zn
  Zn14     1.0000 0.51395  0.35101  0.47162  Biso   1.000  Zn
  Zn15     1.0000 0.09935  0.93639  0.88660  Biso   1.000  Zn
  Zn16     1.0000 0.09922  0.93626  0.06210  Biso   1.000  Zn
  H25      1.0000 0.35059  0.70553  0.61387  Biso   1.000  H
  H26      1.0000 0.34746  0.49286  0.82874  Biso   1.000  H
  H27      1.0000 0.35422  0.70353  0.30999  Biso   1.000  H
  H28      1.0000 0.35371  0.49169  0.30466  Biso   1.000  H
  H29      1.0000 0.86760  0.49229  0.31179  Biso   1.000  H
  H30      1.0000 0.74469  0.09964  0.91986  Biso   1.000  H
  H31      1.0000 0.95737  0.10276  0.70498  Biso   1.000  H
  H32      1.0000 0.74668  0.09601  0.22374  Biso   1.000  H
  H33      1.0000 0.95854  0.09651  0.22906  Biso   1.000  H
  H34      1.0000 0.95794  0.58264  0.22193  Biso   1.000  H
  H35      1.0000 0.26258  0.58175  0.91986  Biso   1.000  H
  H36      1.0000 0.26572  0.79441  0.70498  Biso   1.000  H
  H37      1.0000 0.25895  0.58374  0.22374  Biso   1.000  H
  H38      1.0000 0.25946  0.79559  0.22906  Biso   1.000  H
  H39      1.0000 0.74558  0.79499  0.22193  Biso   1.000  H
  H40      1.0000 0.86849  0.18764  0.61387  Biso   1.000  H
  H41      1.0000 0.65580  0.18451  0.82874  Biso   1.000  H
  H42      1.0000 0.86649  0.19127  0.30999  Biso   1.000  H
  H43      1.0000 0.65463  0.19077  0.30466  Biso   1.000  H
  H44      1.0000 0.65523  0.70464  0.31179  Biso   1.000  H
  H45      1.0000 0.35189  0.18894  0.61316  Biso   1.000  H
  H46      1.0000 0.34917  0.18622  0.83266  Biso   1.000  H
  H47      1.0000 0.26128  0.09833  0.92056  Biso   1.000  H
  H48      1.0000 0.26400  0.10105  0.70106  Biso   1.000  H
  C49      1.0000 0.41888  0.53596  0.65274  Biso   1.000  C
  C50      1.0000 0.35982  0.59321  0.71342  Biso   1.000  C
  C51      1.0000 0.33361  0.67891  0.67645  Biso   1.000  C
  C52      1.0000 0.33179  0.55534  0.80303  Biso   1.000  C
  C53      1.0000 0.41930  0.53477  0.37488  Biso   1.000  C
  C54      1.0000 0.36315  0.59072  0.31772  Biso   1.000  C
  C55      1.0000 0.33524  0.67772  0.29241  Biso   1.000  C
  C56      1.0000 0.33483  0.55396  0.28899  Biso   1.000  C
  C57      1.0000 0.84118  0.55466  0.29221  Biso   1.000  C
  C58      1.0000 0.91427  0.03134  0.88098  Biso   1.000  C
  C59      1.0000 0.85703  0.09040  0.82030  Biso   1.000  C
  C60      1.0000 0.77131  0.11661  0.85727  Biso   1.000  C
  C61      1.0000 0.89490  0.11843  0.73070  Biso   1.000  C
  C62      1.0000 0.91546  0.03092  0.15884  Biso   1.000  C
  C63      1.0000 0.85951  0.08707  0.21600  Biso   1.000  C
  C64      1.0000 0.77249  0.11499  0.24132  Biso   1.000  C
  C65      1.0000 0.89627  0.11539  0.24473  Biso   1.000  C
  C66      1.0000 0.89556  0.60905  0.24152  Biso   1.000  C
  C67      1.0000 0.19429  0.75131  0.88098  Biso   1.000  C
  C68      1.0000 0.25336  0.69407  0.82030  Biso   1.000  C
  C69      1.0000 0.27956  0.60837  0.85727  Biso   1.000  C
  C70      1.0000 0.28138  0.73194  0.73070  Biso   1.000  C
  C71      1.0000 0.19388  0.75250  0.15884  Biso   1.000  C
  C72      1.0000 0.25002  0.69656  0.21600  Biso   1.000  C
  C73      1.0000 0.27793  0.60955  0.24132  Biso   1.000  C
  C74      1.0000 0.27834  0.73332  0.24473  Biso   1.000  C
  C75      1.0000 0.77199  0.73261  0.24152  Biso   1.000  C
  C76      1.0000 0.69890  0.25594  0.65274  Biso   1.000  C
  C77      1.0000 0.75615  0.19687  0.71342  Biso   1.000  C
  C78      1.0000 0.84187  0.17066  0.67645  Biso   1.000  C
  C79      1.0000 0.71828  0.16885  0.80303  Biso   1.000  C
  C80      1.0000 0.69771  0.25635  0.37488  Biso   1.000  C
  C81      1.0000 0.75366  0.20021  0.31772  Biso   1.000  C
  C82      1.0000 0.84068  0.17229  0.29241  Biso   1.000  C
  C83      1.0000 0.71690  0.17189  0.28899  Biso   1.000  C
  C84      1.0000 0.71761  0.67822  0.29221  Biso   1.000  C
  C85      1.0000 0.41717  0.25423  0.65937  Biso   1.000  C
  C86      1.0000 0.36082  0.19788  0.71261  Biso   1.000  C
  C87      1.0000 0.33411  0.17116  0.67545  Biso   1.000  C
  C88      1.0000 0.33169  0.16875  0.80503  Biso   1.000  C
  C89      1.0000 0.69479  0.53186  0.38010  Biso   1.000  C
  C90      1.0000 0.75526  0.59233  0.31782  Biso   1.000  C
  C91      1.0000 0.19600  0.03305  0.87435  Biso   1.000  C
  C92      1.0000 0.25235  0.08940  0.82111  Biso   1.000  C
  C93      1.0000 0.27906  0.11611  0.85828  Biso   1.000  C
  C94      1.0000 0.28148  0.11853  0.72869  Biso   1.000  C
  C95      1.0000 0.91838  0.75542  0.15362  Biso   1.000  C
  C96      1.0000 0.85791  0.69495  0.21590  Biso   1.000  C
  O27      1.0000 0.43906  0.44988  0.69644  Biso   1.000  O
  O28      1.0000 0.44148  0.57664  0.56967  Biso   1.000  O
  O29      1.0000 0.43878  0.44879  0.40030  Biso   1.000  O
  O30      1.0000 0.44099  0.57515  0.39748  Biso   1.000  O
  O31      1.0000 0.73738  0.44849  0.39979  Biso   1.000  O
  O32      1.0000 0.00035  0.01115  0.83728  Biso   1.000  O
  O33      1.0000 0.87359  0.00874  0.96406  Biso   1.000  O
  O34      1.0000 0.00144  0.01144  0.13343  Biso   1.000  O
  O35      1.0000 0.87509  0.00923  0.13624  Biso   1.000  O
  O36      1.0000 0.00174  0.71283  0.13393  Biso   1.000  O
  O37      1.0000 0.17411  0.83739  0.83728  Biso   1.000  O
  O38      1.0000 0.17169  0.71063  0.96406  Biso   1.000  O
  O39      1.0000 0.17439  0.83848  0.13343  Biso   1.000  O
  O40      1.0000 0.17218  0.71213  0.13624  Biso   1.000  O
  O41      1.0000 0.87579  0.83878  0.13393  Biso   1.000  O
  O42      1.0000 0.61282  0.27612  0.69644  Biso   1.000  O
  O43      1.0000 0.73958  0.27854  0.56967  Biso   1.000  O
  O44      1.0000 0.61173  0.27584  0.40030  Biso   1.000  O
  O45      1.0000 0.73808  0.27805  0.39748  Biso   1.000  O
  O46      1.0000 0.61143  0.57444  0.39979  Biso   1.000  O
  O47      1.0000 0.55759  0.39465  0.51592  Biso   1.000  O
  O48      1.0000 0.44047  0.27753  0.69544  Biso   1.000  O
  O49      1.0000 0.43887  0.27593  0.57439  Biso   1.000  O
  O50      1.0000 0.05558  0.89262  0.01780  Biso   1.000  O
  O51      1.0000 0.17270  0.00975  0.83829  Biso   1.000  O
  O52      1.0000 0.17430  0.01135  0.95934  Biso   1.000  O
