data_image0
_cell_length_a       18.2359
_cell_length_b       18.2359
_cell_length_c       18.2359
_cell_angle_alpha    60
_cell_angle_beta     60
_cell_angle_gamma    60

_symmetry_space_group_name_H-M    "P 1"
_symmetry_int_tables_number       1

loop_
  _symmetry_equiv_pos_as_xyz
  'x, y, z'

loop_
  _atom_site_label
  _atom_site_occupancy
  _atom_site_fract_x
  _atom_site_fract_y
  _atom_site_fract_z
  _atom_site_thermal_displace_type
  _atom_site_B_iso_or_equiv
  _atom_site_type_symbol
  C1       1.0000 0.29356  0.29357  0.11930  Biso   1.000  C
  C2       1.0000 0.29356  0.29357  0.29357  Biso   1.000  C
  C3       1.0000 0.11929  0.29357  0.29357  Biso   1.000  C
  C4       1.0000 0.29356  0.11930  0.29357  Biso   1.000  C
  C5       1.0000 0.70644  0.70643  0.88070  Biso   1.000  C
  C6       1.0000 0.70644  0.70643  0.70643  Biso   1.000  C
  C7       1.0000 0.70644  0.88070  0.70643  Biso   1.000  C
  C8       1.0000 0.88071  0.70643  0.70643  Biso   1.000  C
  C9       1.0000 0.45600  0.45600  0.93640  Biso   1.000  C
  C10      1.0000 0.45600  0.45600  0.15160  Biso   1.000  C
  C11      1.0000 0.93640  0.15160  0.45600  Biso   1.000  C
  C12      1.0000 0.15160  0.93640  0.45600  Biso   1.000  C
  C13      1.0000 0.45600  0.93640  0.15160  Biso   1.000  C
  C14      1.0000 0.45600  0.15160  0.93640  Biso   1.000  C
  C15      1.0000 0.93640  0.45600  0.45600  Biso   1.000  C
  C16      1.0000 0.15160  0.45600  0.45600  Biso   1.000  C
  C17      1.0000 0.45600  0.15160  0.45600  Biso   1.000  C
  C18      1.0000 0.45600  0.93640  0.45600  Biso   1.000  C
  C19      1.0000 0.93640  0.45600  0.15160  Biso   1.000  C
  C20      1.0000 0.15160  0.45600  0.93640  Biso   1.000  C
  C21      1.0000 0.54400  0.54400  0.06360  Biso   1.000  C
  C22      1.0000 0.54400  0.54400  0.84840  Biso   1.000  C
  C23      1.0000 0.84840  0.06360  0.54400  Biso   1.000  C
  C24      1.0000 0.06360  0.84840  0.54400  Biso   1.000  C
  C25      1.0000 0.06360  0.54400  0.84840  Biso   1.000  C
  C26      1.0000 0.84840  0.54400  0.06360  Biso   1.000  C
  C27      1.0000 0.54400  0.06360  0.54400  Biso   1.000  C
  C28      1.0000 0.54400  0.84840  0.54400  Biso   1.000  C
  C29      1.0000 0.84840  0.54400  0.54400  Biso   1.000  C
  C30      1.0000 0.06360  0.54400  0.54400  Biso   1.000  C
  C31      1.0000 0.54400  0.06360  0.84840  Biso   1.000  C
  C32      1.0000 0.54400  0.84840  0.06360  Biso   1.000  C
  C33      1.0000 0.47360  0.47360  0.96320  Biso   1.000  C
  C34      1.0000 0.47360  0.47360  0.08960  Biso   1.000  C
  C35      1.0000 0.96320  0.08960  0.47360  Biso   1.000  C
  C36      1.0000 0.08960  0.96320  0.47360  Biso   1.000  C
  C37      1.0000 0.47360  0.96320  0.08960  Biso   1.000  C
  C38      1.0000 0.47360  0.08960  0.96320  Biso   1.000  C
  C39      1.0000 0.96320  0.47360  0.47360  Biso   1.000  C
  C40      1.0000 0.08960  0.47360  0.47360  Biso   1.000  C
  C41      1.0000 0.47360  0.08960  0.47360  Biso   1.000  C
  C42      1.0000 0.47360  0.96320  0.47360  Biso   1.000  C
  C43      1.0000 0.96320  0.47360  0.08960  Biso   1.000  C
  C44      1.0000 0.08960  0.47360  0.96320  Biso   1.000  C
  C45      1.0000 0.52640  0.52640  0.03680  Biso   1.000  C
  C46      1.0000 0.52640  0.52640  0.91040  Biso   1.000  C
  C47      1.0000 0.91040  0.03680  0.52640  Biso   1.000  C
  C48      1.0000 0.03680  0.91040  0.52640  Biso   1.000  C
  C49      1.0000 0.03680  0.52640  0.91040  Biso   1.000  C
  C50      1.0000 0.91040  0.52640  0.03680  Biso   1.000  C
  C51      1.0000 0.52640  0.03680  0.52640  Biso   1.000  C
  C52      1.0000 0.52640  0.91040  0.52640  Biso   1.000  C
  C53      1.0000 0.91040  0.52640  0.52640  Biso   1.000  C
  C54      1.0000 0.03680  0.52640  0.52640  Biso   1.000  C
  C55      1.0000 0.52640  0.03680  0.91040  Biso   1.000  C
  C56      1.0000 0.52640  0.91040  0.03680  Biso   1.000  C
  C57      1.0000 0.38860  0.38860  0.11140  Biso   1.000  C
  C58      1.0000 0.44630  0.44630  0.05370  Biso   1.000  C
  C59      1.0000 0.11140  0.11140  0.38860  Biso   1.000  C
  C60      1.0000 0.05370  0.05370  0.44630  Biso   1.000  C
  C61      1.0000 0.38860  0.11140  0.11140  Biso   1.000  C
  C62      1.0000 0.44630  0.05370  0.05370  Biso   1.000  C
  C63      1.0000 0.11140  0.38860  0.38860  Biso   1.000  C
  C64      1.0000 0.05370  0.44630  0.44630  Biso   1.000  C
  C65      1.0000 0.38860  0.11140  0.38860  Biso   1.000  C
  C66      1.0000 0.44630  0.05370  0.44630  Biso   1.000  C
  C67      1.0000 0.11140  0.38860  0.11140  Biso   1.000  C
  C68      1.0000 0.05370  0.44630  0.05370  Biso   1.000  C
  C69      1.0000 0.61140  0.61140  0.88860  Biso   1.000  C
  C70      1.0000 0.55370  0.55370  0.94630  Biso   1.000  C
  C71      1.0000 0.88860  0.88860  0.61140  Biso   1.000  C
  C72      1.0000 0.94630  0.94630  0.55370  Biso   1.000  C
  C73      1.0000 0.88860  0.61140  0.88860  Biso   1.000  C
  C74      1.0000 0.94630  0.55370  0.94630  Biso   1.000  C
  C75      1.0000 0.61140  0.88860  0.61140  Biso   1.000  C
  C76      1.0000 0.55370  0.94630  0.55370  Biso   1.000  C
  C77      1.0000 0.88860  0.61140  0.61140  Biso   1.000  C
  C78      1.0000 0.94630  0.55370  0.55370  Biso   1.000  C
  C79      1.0000 0.61140  0.88860  0.88860  Biso   1.000  C
  C80      1.0000 0.55370  0.94630  0.94630  Biso   1.000  C
  C81      1.0000 0.25000  0.25000  0.25000  Biso   1.000  C
  C82      1.0000 0.75000  0.75000  0.75000  Biso   1.000  C
  C83      1.0000 0.36605  0.36605  0.07323  Biso   1.000  C
  C84      1.0000 0.36605  0.36605  0.19467  Biso   1.000  C
  C85      1.0000 0.07323  0.19467  0.36605  Biso   1.000  C
  C86      1.0000 0.19467  0.07323  0.36605  Biso   1.000  C
  C87      1.0000 0.36605  0.07323  0.19467  Biso   1.000  C
  C88      1.0000 0.36605  0.19467  0.07323  Biso   1.000  C
  C89      1.0000 0.07323  0.36605  0.36605  Biso   1.000  C
  C90      1.0000 0.19467  0.36605  0.36605  Biso   1.000  C
  C91      1.0000 0.36605  0.19467  0.36605  Biso   1.000  C
  C92      1.0000 0.36605  0.07323  0.36605  Biso   1.000  C
  C93      1.0000 0.07323  0.36605  0.19467  Biso   1.000  C
  C94      1.0000 0.19467  0.36605  0.07323  Biso   1.000  C
  C95      1.0000 0.63395  0.63395  0.92677  Biso   1.000  C
  C96      1.0000 0.63395  0.63395  0.80533  Biso   1.000  C
  C97      1.0000 0.80533  0.92677  0.63395  Biso   1.000  C
  C98      1.0000 0.92677  0.80533  0.63395  Biso   1.000  C
  C99      1.0000 0.92677  0.63395  0.80533  Biso   1.000  C
  C100     1.0000 0.80533  0.63395  0.92677  Biso   1.000  C
  C101     1.0000 0.63395  0.92677  0.63395  Biso   1.000  C
  C102     1.0000 0.63395  0.80533  0.63395  Biso   1.000  C
  C103     1.0000 0.80533  0.63395  0.63395  Biso   1.000  C
  C104     1.0000 0.92677  0.63395  0.63395  Biso   1.000  C
  C105     1.0000 0.63395  0.92677  0.80533  Biso   1.000  C
  C106     1.0000 0.63395  0.80533  0.92677  Biso   1.000  C
  O1       1.0000 0.00548  0.83574  0.13337  Biso   1.000  O
  O2       1.0000 0.83378  0.00743  0.13337  Biso   1.000  O
  O3       1.0000 0.42670  0.42866  0.72629  Biso   1.000  O
  O4       1.0000 0.00548  0.00743  0.13337  Biso   1.000  O
  O5       1.0000 0.42670  0.60035  0.55459  Biso   1.000  O
  O6       1.0000 0.42670  0.42866  0.55459  Biso   1.000  O
  O7       1.0000 0.59840  0.42866  0.55459  Biso   1.000  O
  O8       1.0000 0.00548  0.00743  0.96167  Biso   1.000  O
  O9       1.0000 0.63022  0.75442  0.37580  Biso   1.000  O
  O10      1.0000 0.18427  0.68167  0.31216  Biso   1.000  O
  O11      1.0000 0.75247  0.24986  0.37580  Biso   1.000  O
  O12      1.0000 0.15588  0.77118  0.89712  Biso   1.000  O
  O13      1.0000 0.63022  0.24986  0.88036  Biso   1.000  O
  O14      1.0000 0.76923  0.77118  0.28377  Biso   1.000  O
  O15      1.0000 0.60498  0.60694  0.46216  Biso   1.000  O
  O16      1.0000 0.67971  0.80391  0.31216  Biso   1.000  O
  O17      1.0000 0.80196  0.68167  0.31216  Biso   1.000  O
  O18      1.0000 0.15588  0.15784  0.89712  Biso   1.000  O
  O19      1.0000 0.15588  0.77118  0.28377  Biso   1.000  O
  O20      1.0000 0.24790  0.75442  0.75811  Biso   1.000  O
  O21      1.0000 0.24790  0.63218  0.37580  Biso   1.000  O
  O22      1.0000 0.09791  0.82915  0.22580  Biso   1.000  O
  O23      1.0000 0.82719  0.09987  0.95509  Biso   1.000  O
  O24      1.0000 0.60498  0.33622  0.46216  Biso   1.000  O
  O25      1.0000 0.82719  0.09987  0.22580  Biso   1.000  O
  O26      1.0000 0.82719  0.82915  0.22580  Biso   1.000  O
  O27      1.0000 0.75247  0.63218  0.37580  Biso   1.000  O
  O28      1.0000 0.80196  0.18623  0.31216  Biso   1.000  O
  O29      1.0000 0.33427  0.60694  0.46216  Biso   1.000  O
  O30      1.0000 0.67971  0.18623  0.31216  Biso   1.000  O
  O31      1.0000 0.24790  0.63218  0.88036  Biso   1.000  O
  O32      1.0000 0.09791  0.09987  0.95509  Biso   1.000  O
  O33      1.0000 0.67971  0.18623  0.92985  Biso   1.000  O
  O34      1.0000 0.60498  0.33622  0.73287  Biso   1.000  O
  O35      1.0000 0.27630  0.66491  0.40419  Biso   1.000  O
  O36      1.0000 0.63022  0.24986  0.37580  Biso   1.000  O
  O37      1.0000 0.18427  0.18623  0.80760  Biso   1.000  O
  O38      1.0000 0.09791  0.82915  0.95509  Biso   1.000  O
  O39      1.0000 0.75247  0.24986  0.75811  Biso   1.000  O
  O40      1.0000 0.18427  0.18623  0.92985  Biso   1.000  O
  O41      1.0000 0.66295  0.27825  0.79084  Biso   1.000  O
  O42      1.0000 0.24790  0.75442  0.37580  Biso   1.000  O
  O43      1.0000 0.24790  0.24986  0.75811  Biso   1.000  O
  O44      1.0000 0.33427  0.60694  0.73287  Biso   1.000  O
  O45      1.0000 0.24790  0.24986  0.88036  Biso   1.000  O
  O46      1.0000 0.18427  0.68167  0.92985  Biso   1.000  O
  O47      1.0000 0.18427  0.80391  0.80760  Biso   1.000  O
  O48      1.0000 0.76923  0.15784  0.28377  Biso   1.000  O
  O49      1.0000 0.18427  0.80391  0.31216  Biso   1.000  O
  O50      1.0000 0.66295  0.27825  0.40419  Biso   1.000  O
  O51      1.0000 0.27630  0.66491  0.79084  Biso   1.000  O
  O52      1.0000 0.33427  0.33622  0.73287  Biso   1.000  O
  O53      1.0000 0.27630  0.27825  0.79084  Biso   1.000  O
  O54      1.0000 0.76923  0.15784  0.89712  Biso   1.000  O
  O55      1.0000 0.80196  0.18623  0.80760  Biso   1.000  O
  O56      1.0000 0.66295  0.66491  0.40419  Biso   1.000  O
  O57      1.0000 0.35487  0.64882  0.48276  Biso   1.000  O
  O58      1.0000 0.35487  0.64882  0.64979  Biso   1.000  O
  O59      1.0000 0.07731  0.78727  0.20520  Biso   1.000  O
  O60      1.0000 0.52189  0.35683  0.77475  Biso   1.000  O
  O61      1.0000 0.35487  0.35683  0.77475  Biso   1.000  O
  O62      1.0000 0.07731  0.78727  0.03817  Biso   1.000  O
  O63      1.0000 0.91028  0.07926  0.91321  Biso   1.000  O
  O64      1.0000 0.07731  0.07926  0.91321  Biso   1.000  O
  O65      1.0000 0.35487  0.52385  0.48276  Biso   1.000  O
  O66      1.0000 0.64686  0.52385  0.48276  Biso   1.000  O
  O67      1.0000 0.07731  0.91224  0.20520  Biso   1.000  O
  O68      1.0000 0.35487  0.35683  0.64979  Biso   1.000  O
  O69      1.0000 0.91028  0.07926  0.20520  Biso   1.000  O
  O70      1.0000 0.78532  0.91224  0.20520  Biso   1.000  O
  O71      1.0000 0.78532  0.07926  0.20520  Biso   1.000  O
  O72      1.0000 0.35487  0.52385  0.77475  Biso   1.000  O
  O73      1.0000 0.46962  0.47158  0.59752  Biso   1.000  O
  O74      1.0000 0.52189  0.64882  0.48276  Biso   1.000  O
  O75      1.0000 0.91028  0.78727  0.20520  Biso   1.000  O
  O76      1.0000 0.78532  0.07926  0.03817  Biso   1.000  O
  O77      1.0000 0.64686  0.35683  0.48276  Biso   1.000  O
  O78      1.0000 0.07731  0.07926  0.03817  Biso   1.000  O
  O79      1.0000 0.96255  0.96451  0.09044  Biso   1.000  O
  O80      1.0000 0.52189  0.35683  0.48276  Biso   1.000  O
  O81      1.0000 0.07731  0.91224  0.91321  Biso   1.000  O
  O82      1.0000 0.64686  0.35683  0.64979  Biso   1.000  O
  O83      1.0000 0.55452  0.78624  0.39774  Biso   1.000  O
  O84      1.0000 0.16456  0.64593  0.29245  Biso   1.000  O
  O85      1.0000 0.78428  0.27180  0.39774  Biso   1.000  O
  O86      1.0000 0.55452  0.27180  0.91217  Biso   1.000  O
  O87      1.0000 0.64790  0.87962  0.29022  Biso   1.000  O
  O88      1.0000 0.87713  0.64593  0.29245  Biso   1.000  O
  O89      1.0000 0.26985  0.78624  0.68241  Biso   1.000  O
  O90      1.0000 0.26985  0.55647  0.39774  Biso   1.000  O
  O91      1.0000 0.78428  0.55647  0.39774  Biso   1.000  O
  O92      1.0000 0.87766  0.16428  0.29022  Biso   1.000  O
  O93      1.0000 0.64790  0.16428  0.29022  Biso   1.000  O
  O94      1.0000 0.26985  0.55647  0.91217  Biso   1.000  O
  O95      1.0000 0.64790  0.16428  0.00555  Biso   1.000  O
  O96      1.0000 0.55452  0.27180  0.39774  Biso   1.000  O
  O97      1.0000 0.16456  0.16651  0.77186  Biso   1.000  O
  O98      1.0000 0.78820  0.26958  0.68294  Biso   1.000  O
  O99      1.0000 0.16456  0.16651  0.00502  Biso   1.000  O
  O100     1.0000 0.26762  0.79016  0.39551  Biso   1.000  O
  O101     1.0000 0.26985  0.27180  0.68241  Biso   1.000  O
  O102     1.0000 0.26985  0.27180  0.91217  Biso   1.000  O
  O103     1.0000 0.16456  0.64593  0.00502  Biso   1.000  O
  O104     1.0000 0.16456  0.87908  0.77186  Biso   1.000  O
  O105     1.0000 0.16456  0.87908  0.29245  Biso   1.000  O
  O106     1.0000 0.87766  0.16428  0.77579  Biso   1.000  O
