data_image0
_cell_length_a       18.2704
_cell_length_b       18.2704
_cell_length_c       18.2704
_cell_angle_alpha    60
_cell_angle_beta     60
_cell_angle_gamma    60

_symmetry_space_group_name_H-M    "P 1"
_symmetry_int_tables_number       1

loop_
  _symmetry_equiv_pos_as_xyz
  'x, y, z'

loop_
  _atom_site_label
  _atom_site_occupancy
  _atom_site_fract_x
  _atom_site_fract_y
  _atom_site_fract_z
  _atom_site_thermal_displace_type
  _atom_site_B_iso_or_equiv
  _atom_site_type_symbol
  Zn1      1.0000 0.29350  0.29349  0.11952  Biso   1.000  Zn
  Zn2      1.0000 0.29350  0.29349  0.29349  Biso   1.000  Zn
  Zn3      1.0000 0.11953  0.29349  0.29349  Biso   1.000  Zn
  Zn4      1.0000 0.29350  0.11952  0.29349  Biso   1.000  Zn
  Zn5      1.0000 0.70650  0.70651  0.88048  Biso   1.000  Zn
  Zn6      1.0000 0.70650  0.70651  0.70651  Biso   1.000  Zn
  Zn7      1.0000 0.70650  0.88048  0.70651  Biso   1.000  Zn
  Zn8      1.0000 0.88047  0.70651  0.70651  Biso   1.000  Zn
  H1       1.0000 0.45540  0.45540  0.93560  Biso   1.000  H
  H2       1.0000 0.45540  0.45540  0.15360  Biso   1.000  H
  H3       1.0000 0.93560  0.15360  0.45540  Biso   1.000  H
  H4       1.0000 0.15360  0.93560  0.45540  Biso   1.000  H
  H5       1.0000 0.45540  0.93560  0.15360  Biso   1.000  H
  H6       1.0000 0.45540  0.15360  0.93560  Biso   1.000  H
  H7       1.0000 0.93560  0.45540  0.45540  Biso   1.000  H
  H8       1.0000 0.15360  0.45540  0.45540  Biso   1.000  H
  H9       1.0000 0.45540  0.15360  0.45540  Biso   1.000  H
  H10      1.0000 0.45540  0.93560  0.45540  Biso   1.000  H
  H11      1.0000 0.93560  0.45540  0.15360  Biso   1.000  H
  H12      1.0000 0.15360  0.45540  0.93560  Biso   1.000  H
  H13      1.0000 0.54460  0.54460  0.06440  Biso   1.000  H
  H14      1.0000 0.54460  0.54460  0.84640  Biso   1.000  H
  H15      1.0000 0.84640  0.06440  0.54460  Biso   1.000  H
  H16      1.0000 0.06440  0.84640  0.54460  Biso   1.000  H
  H17      1.0000 0.06440  0.54460  0.84640  Biso   1.000  H
  H18      1.0000 0.84640  0.54460  0.06440  Biso   1.000  H
  H19      1.0000 0.54460  0.06440  0.54460  Biso   1.000  H
  H20      1.0000 0.54460  0.84640  0.54460  Biso   1.000  H
  H21      1.0000 0.84640  0.54460  0.54460  Biso   1.000  H
  H22      1.0000 0.06440  0.54460  0.54460  Biso   1.000  H
  H23      1.0000 0.54460  0.06440  0.84640  Biso   1.000  H
  H24      1.0000 0.54460  0.84640  0.06440  Biso   1.000  H
  C1       1.0000 0.47338  0.47338  0.96238  Biso   1.000  C
  C2       1.0000 0.47338  0.47338  0.09086  Biso   1.000  C
  C3       1.0000 0.96238  0.09086  0.47338  Biso   1.000  C
  C4       1.0000 0.09086  0.96238  0.47338  Biso   1.000  C
  C5       1.0000 0.47338  0.96238  0.09086  Biso   1.000  C
  C6       1.0000 0.47338  0.09086  0.96238  Biso   1.000  C
  C7       1.0000 0.96238  0.47338  0.47338  Biso   1.000  C
  C8       1.0000 0.09086  0.47338  0.47338  Biso   1.000  C
  C9       1.0000 0.47338  0.09086  0.47338  Biso   1.000  C
  C10      1.0000 0.47338  0.96238  0.47338  Biso   1.000  C
  C11      1.0000 0.96238  0.47338  0.09086  Biso   1.000  C
  C12      1.0000 0.09086  0.47338  0.96238  Biso   1.000  C
  C13      1.0000 0.52662  0.52662  0.03762  Biso   1.000  C
  C14      1.0000 0.52662  0.52662  0.90914  Biso   1.000  C
  C15      1.0000 0.90914  0.03762  0.52662  Biso   1.000  C
  C16      1.0000 0.03762  0.90914  0.52662  Biso   1.000  C
  C17      1.0000 0.03762  0.52662  0.90914  Biso   1.000  C
  C18      1.0000 0.90914  0.52662  0.03762  Biso   1.000  C
  C19      1.0000 0.52662  0.03762  0.52662  Biso   1.000  C
  C20      1.0000 0.52662  0.90914  0.52662  Biso   1.000  C
  C21      1.0000 0.90914  0.52662  0.52662  Biso   1.000  C
  C22      1.0000 0.03762  0.52662  0.52662  Biso   1.000  C
  C23      1.0000 0.52662  0.03762  0.90914  Biso   1.000  C
  C24      1.0000 0.52662  0.90914  0.03762  Biso   1.000  C
  C25      1.0000 0.38861  0.38861  0.11139  Biso   1.000  C
  C26      1.0000 0.44619  0.44619  0.05381  Biso   1.000  C
  C27      1.0000 0.11139  0.11139  0.38861  Biso   1.000  C
  C28      1.0000 0.05381  0.05381  0.44619  Biso   1.000  C
  C29      1.0000 0.38861  0.11139  0.11139  Biso   1.000  C
  C30      1.0000 0.44619  0.05381  0.05381  Biso   1.000  C
  C31      1.0000 0.11139  0.38861  0.38861  Biso   1.000  C
  C32      1.0000 0.05381  0.44619  0.44619  Biso   1.000  C
  C33      1.0000 0.38861  0.11139  0.38861  Biso   1.000  C
  C34      1.0000 0.44619  0.05381  0.44619  Biso   1.000  C
  C35      1.0000 0.11139  0.38861  0.11139  Biso   1.000  C
  C36      1.0000 0.05381  0.44619  0.05381  Biso   1.000  C
  C37      1.0000 0.61139  0.61139  0.88861  Biso   1.000  C
  C38      1.0000 0.55381  0.55381  0.94619  Biso   1.000  C
  C39      1.0000 0.88861  0.88861  0.61139  Biso   1.000  C
  C40      1.0000 0.94619  0.94619  0.55381  Biso   1.000  C
  C41      1.0000 0.88861  0.61139  0.88861  Biso   1.000  C
  C42      1.0000 0.94619  0.55381  0.94619  Biso   1.000  C
  C43      1.0000 0.61139  0.88861  0.61139  Biso   1.000  C
  C44      1.0000 0.55381  0.94619  0.55381  Biso   1.000  C
  C45      1.0000 0.88861  0.61139  0.61139  Biso   1.000  C
  C46      1.0000 0.94619  0.55381  0.55381  Biso   1.000  C
  C47      1.0000 0.61139  0.88861  0.88861  Biso   1.000  C
  C48      1.0000 0.55381  0.94619  0.94619  Biso   1.000  C
  O1       1.0000 0.25000  0.25000  0.25000  Biso   1.000  O
  O2       1.0000 0.75000  0.75000  0.75000  Biso   1.000  O
  O3       1.0000 0.36607  0.36607  0.07299  Biso   1.000  O
  O4       1.0000 0.36607  0.36607  0.19487  Biso   1.000  O
  O5       1.0000 0.07299  0.19487  0.36607  Biso   1.000  O
  O6       1.0000 0.19487  0.07299  0.36607  Biso   1.000  O
  O7       1.0000 0.36607  0.07299  0.19487  Biso   1.000  O
  O8       1.0000 0.36607  0.19487  0.07299  Biso   1.000  O
  O9       1.0000 0.07299  0.36607  0.36607  Biso   1.000  O
  O10      1.0000 0.19487  0.36607  0.36607  Biso   1.000  O
  O11      1.0000 0.36607  0.19487  0.36607  Biso   1.000  O
  O12      1.0000 0.36607  0.07299  0.36607  Biso   1.000  O
  O13      1.0000 0.07299  0.36607  0.19487  Biso   1.000  O
  O14      1.0000 0.19487  0.36607  0.07299  Biso   1.000  O
  O15      1.0000 0.63393  0.63393  0.92701  Biso   1.000  O
  O16      1.0000 0.63393  0.63393  0.80513  Biso   1.000  O
  O17      1.0000 0.80513  0.92701  0.63393  Biso   1.000  O
  O18      1.0000 0.92701  0.80513  0.63393  Biso   1.000  O
  O19      1.0000 0.92701  0.63393  0.80513  Biso   1.000  O
  O20      1.0000 0.80513  0.63393  0.92701  Biso   1.000  O
  O21      1.0000 0.63393  0.92701  0.63393  Biso   1.000  O
  O22      1.0000 0.63393  0.80513  0.63393  Biso   1.000  O
  O23      1.0000 0.80513  0.63393  0.63393  Biso   1.000  O
  O24      1.0000 0.92701  0.63393  0.63393  Biso   1.000  O
  O25      1.0000 0.63393  0.92701  0.80513  Biso   1.000  O
  O26      1.0000 0.63393  0.80513  0.92701  Biso   1.000  O
  Zn9      1.0000 0.59292  0.07985  0.72019  Biso   1.000  Zn
  Zn10     1.0000 0.59292  0.25329  0.72019  Biso   1.000  Zn
  Zn11     1.0000 0.41948  0.25329  0.72019  Biso   1.000  Zn
  Zn12     1.0000 0.59292  0.25329  0.54675  Biso   1.000  Zn
  Zn13     1.0000 0.00827  0.66588  0.13278  Biso   1.000  Zn
  Zn14     1.0000 0.00827  0.83932  0.13278  Biso   1.000  Zn
  Zn15     1.0000 0.18171  0.66588  0.13278  Biso   1.000  Zn
  Zn16     1.0000 0.00827  0.66588  0.30622  Biso   1.000  Zn
  H25      1.0000 0.46204  0.89570  0.87771  Biso   1.000  H
  H26      1.0000 0.75044  0.41081  0.58931  Biso   1.000  H
  H27      1.0000 0.23533  0.12241  0.87771  Biso   1.000  H
  H28      1.0000 0.75044  0.41081  0.36260  Biso   1.000  H
  H29      1.0000 0.23533  0.41081  0.58931  Biso   1.000  H
  H30      1.0000 0.75044  0.12241  0.87771  Biso   1.000  H
  H31      1.0000 0.46204  0.41081  0.36260  Biso   1.000  H
  H32      1.0000 0.75044  0.89570  0.87771  Biso   1.000  H
  H33      1.0000 0.75044  0.12241  0.36260  Biso   1.000  H
  H34      1.0000 0.46204  0.41081  0.87771  Biso   1.000  H
  H35      1.0000 0.75044  0.89570  0.58931  Biso   1.000  H
  H36      1.0000 0.23533  0.41081  0.87771  Biso   1.000  H
  H37      1.0000 0.13915  0.50836  0.97526  Biso   1.000  H
  H38      1.0000 0.85075  0.02347  0.26366  Biso   1.000  H
  H39      1.0000 0.36586  0.50836  0.97526  Biso   1.000  H
  H40      1.0000 0.85075  0.79676  0.49037  Biso   1.000  H
  H41      1.0000 0.36586  0.50836  0.26366  Biso   1.000  H
  H42      1.0000 0.85075  0.02347  0.97526  Biso   1.000  H
  H43      1.0000 0.13915  0.50836  0.49037  Biso   1.000  H
  H44      1.0000 0.85075  0.79676  0.97526  Biso   1.000  H
  H45      1.0000 0.85075  0.50836  0.49037  Biso   1.000  H
  H46      1.0000 0.13915  0.02347  0.97526  Biso   1.000  H
  H47      1.0000 0.85075  0.50836  0.26366  Biso   1.000  H
  H48      1.0000 0.36586  0.79676  0.97526  Biso   1.000  H
  C49      1.0000 0.39154  0.92133  0.90014  Biso   1.000  C
  C50      1.0000 0.77287  0.43324  0.51881  Biso   1.000  C
  C51      1.0000 0.26096  0.05191  0.90014  Biso   1.000  C
  C52      1.0000 0.77287  0.43324  0.38823  Biso   1.000  C
  C53      1.0000 0.26096  0.43324  0.51881  Biso   1.000  C
  C54      1.0000 0.77287  0.05191  0.90014  Biso   1.000  C
  C55      1.0000 0.39154  0.43324  0.38823  Biso   1.000  C
  C56      1.0000 0.77287  0.92133  0.90014  Biso   1.000  C
  C57      1.0000 0.77287  0.05191  0.38823  Biso   1.000  C
  C58      1.0000 0.39154  0.43324  0.90014  Biso   1.000  C
  C59      1.0000 0.77287  0.92133  0.51881  Biso   1.000  C
  C60      1.0000 0.26096  0.43324  0.90014  Biso   1.000  C
  C61      1.0000 0.20965  0.48593  0.95283  Biso   1.000  C
  C62      1.0000 0.82832  0.99784  0.33416  Biso   1.000  C
  C63      1.0000 0.34023  0.48593  0.95283  Biso   1.000  C
  C64      1.0000 0.82832  0.86726  0.46474  Biso   1.000  C
  C65      1.0000 0.34023  0.48593  0.33416  Biso   1.000  C
  C66      1.0000 0.82832  0.99784  0.95283  Biso   1.000  C
  C67      1.0000 0.20965  0.48593  0.46474  Biso   1.000  C
  C68      1.0000 0.82832  0.86726  0.95283  Biso   1.000  C
  C69      1.0000 0.82832  0.48593  0.46474  Biso   1.000  C
  C70      1.0000 0.20965  0.99784  0.95283  Biso   1.000  C
  C71      1.0000 0.82832  0.48593  0.33416  Biso   1.000  C
  C72      1.0000 0.34023  0.86726  0.95283  Biso   1.000  C
  C73      1.0000 0.41007  0.07044  0.81632  Biso   1.000  C
  C74      1.0000 0.35349  0.01386  0.87290  Biso   1.000  C
  C75      1.0000 0.68905  0.34942  0.53734  Biso   1.000  C
  C76      1.0000 0.74563  0.40600  0.48076  Biso   1.000  C
  C77      1.0000 0.41007  0.34942  0.53734  Biso   1.000  C
  C78      1.0000 0.35349  0.40600  0.48076  Biso   1.000  C
  C79      1.0000 0.68905  0.07044  0.81632  Biso   1.000  C
  C80      1.0000 0.74563  0.01386  0.87290  Biso   1.000  C
  C81      1.0000 0.68905  0.07044  0.53734  Biso   1.000  C
  C82      1.0000 0.74563  0.01386  0.48076  Biso   1.000  C
  C83      1.0000 0.41007  0.34942  0.81632  Biso   1.000  C
  C84      1.0000 0.35349  0.40600  0.87290  Biso   1.000  C
  C85      1.0000 0.19112  0.56975  0.03665  Biso   1.000  C
  C86      1.0000 0.24770  0.51317  0.98007  Biso   1.000  C
  C87      1.0000 0.91214  0.84873  0.31563  Biso   1.000  C
  C88      1.0000 0.85556  0.90531  0.37221  Biso   1.000  C
  C89      1.0000 0.19112  0.56975  0.31563  Biso   1.000  C
  C90      1.0000 0.24770  0.51317  0.37221  Biso   1.000  C
  C91      1.0000 0.91214  0.84873  0.03665  Biso   1.000  C
  C92      1.0000 0.85556  0.90531  0.98007  Biso   1.000  C
  C93      1.0000 0.91214  0.56975  0.31563  Biso   1.000  C
  C94      1.0000 0.85556  0.51317  0.37221  Biso   1.000  C
  C95      1.0000 0.19112  0.84873  0.03665  Biso   1.000  C
  C96      1.0000 0.24770  0.90531  0.98007  Biso   1.000  C
  O27      1.0000 0.54956  0.20993  0.67683  Biso   1.000  O
  O28      1.0000 0.05163  0.70924  0.17614  Biso   1.000  O
  O29      1.0000 0.49478  0.03299  0.79269  Biso   1.000  O
  O30      1.0000 0.66542  0.32579  0.62206  Biso   1.000  O
  O31      1.0000 0.37262  0.15515  0.79269  Biso   1.000  O
  O32      1.0000 0.66542  0.32579  0.49989  Biso   1.000  O
  O33      1.0000 0.37262  0.32579  0.62206  Biso   1.000  O
  O34      1.0000 0.66542  0.15515  0.79269  Biso   1.000  O
  O35      1.0000 0.49478  0.32579  0.49989  Biso   1.000  O
  O36      1.0000 0.66542  0.03299  0.79269  Biso   1.000  O
  O37      1.0000 0.66542  0.15515  0.49989  Biso   1.000  O
  O38      1.0000 0.49478  0.32579  0.79269  Biso   1.000  O
  O39      1.0000 0.66542  0.03299  0.62206  Biso   1.000  O
  O40      1.0000 0.37262  0.32579  0.79269  Biso   1.000  O
  O41      1.0000 0.10640  0.59338  0.06028  Biso   1.000  O
  O42      1.0000 0.93577  0.88618  0.23092  Biso   1.000  O
  O43      1.0000 0.22857  0.59338  0.06028  Biso   1.000  O
  O44      1.0000 0.93577  0.76401  0.35308  Biso   1.000  O
  O45      1.0000 0.22857  0.59338  0.23092  Biso   1.000  O
  O46      1.0000 0.93577  0.88618  0.06028  Biso   1.000  O
  O47      1.0000 0.10640  0.59338  0.35308  Biso   1.000  O
  O48      1.0000 0.93577  0.76401  0.06028  Biso   1.000  O
  O49      1.0000 0.93577  0.59338  0.35308  Biso   1.000  O
  O50      1.0000 0.10640  0.88618  0.06028  Biso   1.000  O
  O51      1.0000 0.93577  0.59338  0.23092  Biso   1.000  O
  O52      1.0000 0.22857  0.76401  0.06028  Biso   1.000  O
