data_image0
_cell_length_a       18.2507
_cell_length_b       18.2507
_cell_length_c       18.2507
_cell_angle_alpha    60
_cell_angle_beta     60
_cell_angle_gamma    60

_symmetry_space_group_name_H-M    "P 1"
_symmetry_int_tables_number       1

loop_
  _symmetry_equiv_pos_as_xyz
  'x, y, z'

loop_
  _atom_site_label
  _atom_site_occupancy
  _atom_site_fract_x
  _atom_site_fract_y
  _atom_site_fract_z
  _atom_site_thermal_displace_type
  _atom_site_B_iso_or_equiv
  _atom_site_type_symbol
  Zn1      1.0000 0.29354  0.29353  0.11940  Biso   1.000  Zn
  Zn2      1.0000 0.29354  0.29353  0.29353  Biso   1.000  Zn
  Zn3      1.0000 0.11941  0.29353  0.29353  Biso   1.000  Zn
  Zn4      1.0000 0.29354  0.11940  0.29353  Biso   1.000  Zn
  Zn5      1.0000 0.70646  0.70647  0.88060  Biso   1.000  Zn
  Zn6      1.0000 0.70646  0.70647  0.70647  Biso   1.000  Zn
  Zn7      1.0000 0.70646  0.88060  0.70647  Biso   1.000  Zn
  Zn8      1.0000 0.88059  0.70647  0.70647  Biso   1.000  Zn
  H1       1.0000 0.45580  0.45580  0.93620  Biso   1.000  H
  H2       1.0000 0.45580  0.45580  0.15220  Biso   1.000  H
  H3       1.0000 0.93620  0.15220  0.45580  Biso   1.000  H
  H4       1.0000 0.15220  0.93620  0.45580  Biso   1.000  H
  H5       1.0000 0.45580  0.93620  0.15220  Biso   1.000  H
  H6       1.0000 0.45580  0.15220  0.93620  Biso   1.000  H
  H7       1.0000 0.93620  0.45580  0.45580  Biso   1.000  H
  H8       1.0000 0.15220  0.45580  0.45580  Biso   1.000  H
  H9       1.0000 0.45580  0.15220  0.45580  Biso   1.000  H
  H10      1.0000 0.45580  0.93620  0.45580  Biso   1.000  H
  H11      1.0000 0.93620  0.45580  0.15220  Biso   1.000  H
  H12      1.0000 0.15220  0.45580  0.93620  Biso   1.000  H
  H13      1.0000 0.54420  0.54420  0.06380  Biso   1.000  H
  H14      1.0000 0.54420  0.54420  0.84780  Biso   1.000  H
  H15      1.0000 0.84780  0.06380  0.54420  Biso   1.000  H
  H16      1.0000 0.06380  0.84780  0.54420  Biso   1.000  H
  H17      1.0000 0.06380  0.54420  0.84780  Biso   1.000  H
  H18      1.0000 0.84780  0.54420  0.06380  Biso   1.000  H
  H19      1.0000 0.54420  0.06380  0.54420  Biso   1.000  H
  H20      1.0000 0.54420  0.84780  0.54420  Biso   1.000  H
  H21      1.0000 0.84780  0.54420  0.54420  Biso   1.000  H
  H22      1.0000 0.06380  0.54420  0.54420  Biso   1.000  H
  H23      1.0000 0.54420  0.06380  0.84780  Biso   1.000  H
  H24      1.0000 0.54420  0.84780  0.06380  Biso   1.000  H
  C1       1.0000 0.47349  0.47349  0.96297  Biso   1.000  C
  C2       1.0000 0.47349  0.47349  0.09005  Biso   1.000  C
  C3       1.0000 0.96297  0.09005  0.47349  Biso   1.000  C
  C4       1.0000 0.09005  0.96297  0.47349  Biso   1.000  C
  C5       1.0000 0.47349  0.96297  0.09005  Biso   1.000  C
  C6       1.0000 0.47349  0.09005  0.96297  Biso   1.000  C
  C7       1.0000 0.96297  0.47349  0.47349  Biso   1.000  C
  C8       1.0000 0.09005  0.47349  0.47349  Biso   1.000  C
  C9       1.0000 0.47349  0.09005  0.47349  Biso   1.000  C
  C10      1.0000 0.47349  0.96297  0.47349  Biso   1.000  C
  C11      1.0000 0.96297  0.47349  0.09005  Biso   1.000  C
  C12      1.0000 0.09005  0.47349  0.96297  Biso   1.000  C
  C13      1.0000 0.52651  0.52651  0.03703  Biso   1.000  C
  C14      1.0000 0.52651  0.52651  0.90995  Biso   1.000  C
  C15      1.0000 0.90995  0.03703  0.52651  Biso   1.000  C
  C16      1.0000 0.03703  0.90995  0.52651  Biso   1.000  C
  C17      1.0000 0.03703  0.52651  0.90995  Biso   1.000  C
  C18      1.0000 0.90995  0.52651  0.03703  Biso   1.000  C
  C19      1.0000 0.52651  0.03703  0.52651  Biso   1.000  C
  C20      1.0000 0.52651  0.90995  0.52651  Biso   1.000  C
  C21      1.0000 0.90995  0.52651  0.52651  Biso   1.000  C
  C22      1.0000 0.03703  0.52651  0.52651  Biso   1.000  C
  C23      1.0000 0.52651  0.03703  0.90995  Biso   1.000  C
  C24      1.0000 0.52651  0.90995  0.03703  Biso   1.000  C
  C25      1.0000 0.38859  0.38859  0.11141  Biso   1.000  C
  C26      1.0000 0.44630  0.44630  0.05370  Biso   1.000  C
  C27      1.0000 0.11141  0.11141  0.38859  Biso   1.000  C
  C28      1.0000 0.05370  0.05370  0.44630  Biso   1.000  C
  C29      1.0000 0.38859  0.11141  0.11141  Biso   1.000  C
  C30      1.0000 0.44630  0.05370  0.05370  Biso   1.000  C
  C31      1.0000 0.11141  0.38859  0.38859  Biso   1.000  C
  C32      1.0000 0.05370  0.44630  0.44630  Biso   1.000  C
  C33      1.0000 0.38859  0.11141  0.38859  Biso   1.000  C
  C34      1.0000 0.44630  0.05370  0.44630  Biso   1.000  C
  C35      1.0000 0.11141  0.38859  0.11141  Biso   1.000  C
  C36      1.0000 0.05370  0.44630  0.05370  Biso   1.000  C
  C37      1.0000 0.61141  0.61141  0.88859  Biso   1.000  C
  C38      1.0000 0.55370  0.55370  0.94630  Biso   1.000  C
  C39      1.0000 0.88859  0.88859  0.61141  Biso   1.000  C
  C40      1.0000 0.94630  0.94630  0.55370  Biso   1.000  C
  C41      1.0000 0.88859  0.61141  0.88859  Biso   1.000  C
  C42      1.0000 0.94630  0.55370  0.94630  Biso   1.000  C
  C43      1.0000 0.61141  0.88859  0.61141  Biso   1.000  C
  C44      1.0000 0.55370  0.94630  0.55370  Biso   1.000  C
  C45      1.0000 0.88859  0.61141  0.61141  Biso   1.000  C
  C46      1.0000 0.94630  0.55370  0.55370  Biso   1.000  C
  C47      1.0000 0.61141  0.88859  0.88859  Biso   1.000  C
  C48      1.0000 0.55370  0.94630  0.94630  Biso   1.000  C
  O1       1.0000 0.25000  0.25000  0.25000  Biso   1.000  O
  O2       1.0000 0.75000  0.75000  0.75000  Biso   1.000  O
  O3       1.0000 0.36605  0.36605  0.07321  Biso   1.000  O
  O4       1.0000 0.36605  0.36605  0.19469  Biso   1.000  O
  O5       1.0000 0.07321  0.19469  0.36605  Biso   1.000  O
  O6       1.0000 0.19469  0.07321  0.36605  Biso   1.000  O
  O7       1.0000 0.36605  0.07321  0.19469  Biso   1.000  O
  O8       1.0000 0.36605  0.19469  0.07321  Biso   1.000  O
  O9       1.0000 0.07321  0.36605  0.36605  Biso   1.000  O
  O10      1.0000 0.19469  0.36605  0.36605  Biso   1.000  O
  O11      1.0000 0.36605  0.19469  0.36605  Biso   1.000  O
  O12      1.0000 0.36605  0.07321  0.36605  Biso   1.000  O
  O13      1.0000 0.07321  0.36605  0.19469  Biso   1.000  O
  O14      1.0000 0.19469  0.36605  0.07321  Biso   1.000  O
  O15      1.0000 0.63395  0.63395  0.92679  Biso   1.000  O
  O16      1.0000 0.63395  0.63395  0.80531  Biso   1.000  O
  O17      1.0000 0.80531  0.92679  0.63395  Biso   1.000  O
  O18      1.0000 0.92679  0.80531  0.63395  Biso   1.000  O
  O19      1.0000 0.92679  0.63395  0.80531  Biso   1.000  O
  O20      1.0000 0.80531  0.63395  0.92679  Biso   1.000  O
  O21      1.0000 0.63395  0.92679  0.63395  Biso   1.000  O
  O22      1.0000 0.63395  0.80531  0.63395  Biso   1.000  O
  O23      1.0000 0.80531  0.63395  0.63395  Biso   1.000  O
  O24      1.0000 0.92679  0.63395  0.63395  Biso   1.000  O
  O25      1.0000 0.63395  0.92679  0.80531  Biso   1.000  O
  O26      1.0000 0.63395  0.80531  0.92679  Biso   1.000  O
  Zn9      1.0000 0.89041  0.75889  0.43225  Biso   1.000  Zn
  Zn10     1.0000 0.06447  0.75889  0.25819  Biso   1.000  Zn
  Zn11     1.0000 0.89041  0.75889  0.25819  Biso   1.000  Zn
  Zn12     1.0000 0.89041  0.93295  0.25819  Biso   1.000  Zn
  Zn13     1.0000 0.47659  0.34620  0.67145  Biso   1.000  Zn
  Zn14     1.0000 0.30253  0.34620  0.84551  Biso   1.000  Zn
  Zn15     1.0000 0.47659  0.17214  0.84551  Biso   1.000  Zn
  Zn16     1.0000 0.47659  0.34620  0.84551  Biso   1.000  Zn
  H25      1.0000 0.03110  0.59672  0.61590  Biso   1.000  H
  H26      1.0000 0.24755  0.59672  0.39945  Biso   1.000  H
  H27      1.0000 0.72768  0.90015  0.09602  Biso   1.000  H
  H28      1.0000 0.72768  0.11659  0.09602  Biso   1.000  H
  H29      1.0000 0.72768  0.11659  0.39945  Biso   1.000  H
  H30      1.0000 0.72768  0.90015  0.61590  Biso   1.000  H
  H31      1.0000 0.03110  0.59672  0.09602  Biso   1.000  H
  H32      1.0000 0.24755  0.59672  0.09602  Biso   1.000  H
  H33      1.0000 0.24755  0.90015  0.09602  Biso   1.000  H
  H34      1.0000 0.03110  0.11659  0.09602  Biso   1.000  H
  H35      1.0000 0.72768  0.59672  0.39945  Biso   1.000  H
  H36      1.0000 0.72768  0.59672  0.61590  Biso   1.000  H
  H37      1.0000 0.33590  0.50837  0.48780  Biso   1.000  H
  H38      1.0000 0.11945  0.50837  0.70425  Biso   1.000  H
  H39      1.0000 0.63933  0.98850  0.00767  Biso   1.000  H
  H40      1.0000 0.63933  0.20494  0.00767  Biso   1.000  H
  H41      1.0000 0.63933  0.50837  0.70425  Biso   1.000  H
  H42      1.0000 0.63933  0.50837  0.48780  Biso   1.000  H
  H43      1.0000 0.33590  0.98850  0.00767  Biso   1.000  H
  H44      1.0000 0.11945  0.20494  0.00767  Biso   1.000  H
  H45      1.0000 0.11945  0.50837  0.00767  Biso   1.000  H
  H46      1.0000 0.33590  0.50837  0.00767  Biso   1.000  H
  H47      1.0000 0.63933  0.98850  0.70425  Biso   1.000  H
  H48      1.0000 0.63933  0.20494  0.48780  Biso   1.000  H
  C49      1.0000 0.09320  0.57908  0.58908  Biso   1.000  C
  C50      1.0000 0.22074  0.57908  0.46155  Biso   1.000  C
  C51      1.0000 0.71004  0.96224  0.07838  Biso   1.000  C
  C52      1.0000 0.71004  0.08978  0.07838  Biso   1.000  C
  C53      1.0000 0.71004  0.08978  0.46155  Biso   1.000  C
  C54      1.0000 0.71004  0.96224  0.58908  Biso   1.000  C
  C55      1.0000 0.09320  0.57908  0.07838  Biso   1.000  C
  C56      1.0000 0.22073  0.57908  0.07838  Biso   1.000  C
  C57      1.0000 0.22074  0.96224  0.07838  Biso   1.000  C
  C58      1.0000 0.09320  0.08978  0.07838  Biso   1.000  C
  C59      1.0000 0.71004  0.57908  0.46155  Biso   1.000  C
  C60      1.0000 0.71004  0.57908  0.58908  Biso   1.000  C
  C61      1.0000 0.27380  0.52601  0.51462  Biso   1.000  C
  C62      1.0000 0.14627  0.52601  0.64215  Biso   1.000  C
  C63      1.0000 0.65697  0.01531  0.02531  Biso   1.000  C
  C64      1.0000 0.65697  0.14285  0.02531  Biso   1.000  C
  C65      1.0000 0.65697  0.52601  0.64215  Biso   1.000  C
  C66      1.0000 0.65697  0.52601  0.51462  Biso   1.000  C
  C67      1.0000 0.27380  0.01531  0.02531  Biso   1.000  C
  C68      1.0000 0.14627  0.14285  0.02531  Biso   1.000  C
  C69      1.0000 0.14627  0.52601  0.02531  Biso   1.000  C
  C70      1.0000 0.27380  0.52601  0.02531  Biso   1.000  C
  C71      1.0000 0.65697  0.01531  0.64215  Biso   1.000  C
  C72      1.0000 0.65697  0.14285  0.51462  Biso   1.000  C
  C73      1.0000 0.07242  0.66391  0.44020  Biso   1.000  C
  C74      1.0000 0.13002  0.60631  0.49779  Biso   1.000  C
  C75      1.0000 0.79544  0.94089  0.16322  Biso   1.000  C
  C76      1.0000 0.73784  0.99849  0.10562  Biso   1.000  C
  C77      1.0000 0.79544  0.94089  0.44020  Biso   1.000  C
  C78      1.0000 0.73784  0.99849  0.49779  Biso   1.000  C
  C79      1.0000 0.07242  0.66391  0.16322  Biso   1.000  C
  C80      1.0000 0.13002  0.60631  0.10562  Biso   1.000  C
  C81      1.0000 0.07242  0.94089  0.16322  Biso   1.000  C
  C82      1.0000 0.13002  0.99849  0.10562  Biso   1.000  C
  C83      1.0000 0.79544  0.66391  0.44020  Biso   1.000  C
  C84      1.0000 0.73784  0.60631  0.49779  Biso   1.000  C
  C85      1.0000 0.29458  0.44118  0.66350  Biso   1.000  C
  C86      1.0000 0.23699  0.49877  0.60590  Biso   1.000  C
  C87      1.0000 0.57156  0.16420  0.94048  Biso   1.000  C
  C88      1.0000 0.62916  0.10660  0.99808  Biso   1.000  C
  C89      1.0000 0.57156  0.44118  0.66350  Biso   1.000  C
  C90      1.0000 0.62916  0.49877  0.60590  Biso   1.000  C
  C91      1.0000 0.29458  0.16420  0.94048  Biso   1.000  C
  C92      1.0000 0.23699  0.10660  0.99808  Biso   1.000  C
  C93      1.0000 0.29458  0.44118  0.94048  Biso   1.000  C
  C94      1.0000 0.23699  0.49877  0.99808  Biso   1.000  C
  C95      1.0000 0.57157  0.16420  0.66350  Biso   1.000  C
  C96      1.0000 0.62916  0.10660  0.60590  Biso   1.000  C
  O27      1.0000 0.93393  0.80240  0.30171  Biso   1.000  O
  O28      1.0000 0.43307  0.30269  0.80199  Biso   1.000  O
  O29      1.0000 0.98907  0.68644  0.47850  Biso   1.000  O
  O30      1.0000 0.11072  0.68644  0.35685  Biso   1.000  O
  O31      1.0000 0.81796  0.85754  0.18574  Biso   1.000  O
  O32      1.0000 0.81796  0.97919  0.18574  Biso   1.000  O
  O33      1.0000 0.81796  0.97919  0.35685  Biso   1.000  O
  O34      1.0000 0.81796  0.85754  0.47850  Biso   1.000  O
  O35      1.0000 0.98907  0.68644  0.18574  Biso   1.000  O
  O36      1.0000 0.11072  0.68644  0.18574  Biso   1.000  O
  O37      1.0000 0.11072  0.85754  0.18574  Biso   1.000  O
  O38      1.0000 0.98907  0.97919  0.18574  Biso   1.000  O
  O39      1.0000 0.81796  0.68644  0.35685  Biso   1.000  O
  O40      1.0000 0.81796  0.68644  0.47850  Biso   1.000  O
  O41      1.0000 0.37794  0.41865  0.62520  Biso   1.000  O
  O42      1.0000 0.25628  0.41865  0.74685  Biso   1.000  O
  O43      1.0000 0.54904  0.12590  0.91796  Biso   1.000  O
  O44      1.0000 0.54904  0.24755  0.91796  Biso   1.000  O
  O45      1.0000 0.54904  0.41865  0.74685  Biso   1.000  O
  O46      1.0000 0.54904  0.41865  0.62520  Biso   1.000  O
  O47      1.0000 0.37794  0.12590  0.91796  Biso   1.000  O
  O48      1.0000 0.25628  0.24755  0.91796  Biso   1.000  O
  O49      1.0000 0.25628  0.41865  0.91796  Biso   1.000  O
  O50      1.0000 0.37794  0.41865  0.91796  Biso   1.000  O
  O51      1.0000 0.54904  0.12590  0.74685  Biso   1.000  O
  O52      1.0000 0.54904  0.24755  0.62520  Biso   1.000  O
