data_image0
_cell_length_a       18.228
_cell_length_b       18.228
_cell_length_c       18.228
_cell_angle_alpha    60
_cell_angle_beta     60
_cell_angle_gamma    60

_symmetry_space_group_name_H-M    "P 1"
_symmetry_int_tables_number       1

loop_
  _symmetry_equiv_pos_as_xyz
  'x, y, z'

loop_
  _atom_site_label
  _atom_site_occupancy
  _atom_site_fract_x
  _atom_site_fract_y
  _atom_site_fract_z
  _atom_site_thermal_displace_type
  _atom_site_B_iso_or_equiv
  _atom_site_type_symbol
  Zn1      1.0000 0.29358  0.29359  0.11924  Biso   1.000  Zn
  Zn2      1.0000 0.29358  0.29359  0.29359  Biso   1.000  Zn
  Zn3      1.0000 0.11923  0.29359  0.29359  Biso   1.000  Zn
  Zn4      1.0000 0.29358  0.11924  0.29359  Biso   1.000  Zn
  Zn5      1.0000 0.70642  0.70641  0.88076  Biso   1.000  Zn
  Zn6      1.0000 0.70642  0.70641  0.70641  Biso   1.000  Zn
  Zn7      1.0000 0.70642  0.88076  0.70641  Biso   1.000  Zn
  Zn8      1.0000 0.88077  0.70641  0.70641  Biso   1.000  Zn
  H1       1.0000 0.45570  0.45570  0.93670  Biso   1.000  H
  H2       1.0000 0.45570  0.45570  0.15190  Biso   1.000  H
  H3       1.0000 0.93670  0.15190  0.45570  Biso   1.000  H
  H4       1.0000 0.15190  0.93670  0.45570  Biso   1.000  H
  H5       1.0000 0.45570  0.93670  0.15190  Biso   1.000  H
  H6       1.0000 0.45570  0.15190  0.93670  Biso   1.000  H
  H7       1.0000 0.93670  0.45570  0.45570  Biso   1.000  H
  H8       1.0000 0.15190  0.45570  0.45570  Biso   1.000  H
  H9       1.0000 0.45570  0.15190  0.45570  Biso   1.000  H
  H10      1.0000 0.45570  0.93670  0.45570  Biso   1.000  H
  H11      1.0000 0.93670  0.45570  0.15190  Biso   1.000  H
  H12      1.0000 0.15190  0.45570  0.93670  Biso   1.000  H
  H13      1.0000 0.54430  0.54430  0.06330  Biso   1.000  H
  H14      1.0000 0.54430  0.54430  0.84810  Biso   1.000  H
  H15      1.0000 0.84810  0.06330  0.54430  Biso   1.000  H
  H16      1.0000 0.06330  0.84810  0.54430  Biso   1.000  H
  H17      1.0000 0.06330  0.54430  0.84810  Biso   1.000  H
  H18      1.0000 0.84810  0.54430  0.06330  Biso   1.000  H
  H19      1.0000 0.54430  0.06330  0.54430  Biso   1.000  H
  H20      1.0000 0.54430  0.84810  0.54430  Biso   1.000  H
  H21      1.0000 0.84810  0.54430  0.54430  Biso   1.000  H
  H22      1.0000 0.06330  0.54430  0.54430  Biso   1.000  H
  H23      1.0000 0.54430  0.06330  0.84810  Biso   1.000  H
  H24      1.0000 0.54430  0.84810  0.06330  Biso   1.000  H
  C1       1.0000 0.47340  0.47340  0.96356  Biso   1.000  C
  C2       1.0000 0.47340  0.47340  0.08964  Biso   1.000  C
  C3       1.0000 0.96356  0.08964  0.47340  Biso   1.000  C
  C4       1.0000 0.08964  0.96356  0.47340  Biso   1.000  C
  C5       1.0000 0.47340  0.96356  0.08964  Biso   1.000  C
  C6       1.0000 0.47340  0.08964  0.96356  Biso   1.000  C
  C7       1.0000 0.96356  0.47340  0.47340  Biso   1.000  C
  C8       1.0000 0.08964  0.47340  0.47340  Biso   1.000  C
  C9       1.0000 0.47340  0.08964  0.47340  Biso   1.000  C
  C10      1.0000 0.47340  0.96356  0.47340  Biso   1.000  C
  C11      1.0000 0.96356  0.47340  0.08964  Biso   1.000  C
  C12      1.0000 0.08964  0.47340  0.96356  Biso   1.000  C
  C13      1.0000 0.52660  0.52660  0.03644  Biso   1.000  C
  C14      1.0000 0.52660  0.52660  0.91036  Biso   1.000  C
  C15      1.0000 0.91036  0.03644  0.52660  Biso   1.000  C
  C16      1.0000 0.03644  0.91036  0.52660  Biso   1.000  C
  C17      1.0000 0.03644  0.52660  0.91036  Biso   1.000  C
  C18      1.0000 0.91036  0.52660  0.03644  Biso   1.000  C
  C19      1.0000 0.52660  0.03644  0.52660  Biso   1.000  C
  C20      1.0000 0.52660  0.91036  0.52660  Biso   1.000  C
  C21      1.0000 0.91036  0.52660  0.52660  Biso   1.000  C
  C22      1.0000 0.03644  0.52660  0.52660  Biso   1.000  C
  C23      1.0000 0.52660  0.03644  0.91036  Biso   1.000  C
  C24      1.0000 0.52660  0.91036  0.03644  Biso   1.000  C
  C25      1.0000 0.38850  0.38850  0.11150  Biso   1.000  C
  C26      1.0000 0.44610  0.44610  0.05390  Biso   1.000  C
  C27      1.0000 0.11150  0.11150  0.38850  Biso   1.000  C
  C28      1.0000 0.05390  0.05390  0.44610  Biso   1.000  C
  C29      1.0000 0.38850  0.11150  0.11150  Biso   1.000  C
  C30      1.0000 0.44610  0.05390  0.05390  Biso   1.000  C
  C31      1.0000 0.11150  0.38850  0.38850  Biso   1.000  C
  C32      1.0000 0.05390  0.44610  0.44610  Biso   1.000  C
  C33      1.0000 0.38850  0.11150  0.38850  Biso   1.000  C
  C34      1.0000 0.44610  0.05390  0.44610  Biso   1.000  C
  C35      1.0000 0.11150  0.38850  0.11150  Biso   1.000  C
  C36      1.0000 0.05390  0.44610  0.05390  Biso   1.000  C
  C37      1.0000 0.61150  0.61150  0.88850  Biso   1.000  C
  C38      1.0000 0.55390  0.55390  0.94610  Biso   1.000  C
  C39      1.0000 0.88850  0.88850  0.61150  Biso   1.000  C
  C40      1.0000 0.94610  0.94610  0.55390  Biso   1.000  C
  C41      1.0000 0.88850  0.61150  0.88850  Biso   1.000  C
  C42      1.0000 0.94610  0.55390  0.94610  Biso   1.000  C
  C43      1.0000 0.61150  0.88850  0.61150  Biso   1.000  C
  C44      1.0000 0.55390  0.94610  0.55390  Biso   1.000  C
  C45      1.0000 0.88850  0.61150  0.61150  Biso   1.000  C
  C46      1.0000 0.94610  0.55390  0.55390  Biso   1.000  C
  C47      1.0000 0.61150  0.88850  0.88850  Biso   1.000  C
  C48      1.0000 0.55390  0.94610  0.94610  Biso   1.000  C
  O1       1.0000 0.25000  0.25000  0.25000  Biso   1.000  O
  O2       1.0000 0.75000  0.75000  0.75000  Biso   1.000  O
  O3       1.0000 0.36610  0.36610  0.07322  Biso   1.000  O
  O4       1.0000 0.36610  0.36610  0.19458  Biso   1.000  O
  O5       1.0000 0.07322  0.19458  0.36610  Biso   1.000  O
  O6       1.0000 0.19458  0.07322  0.36610  Biso   1.000  O
  O7       1.0000 0.36610  0.07322  0.19458  Biso   1.000  O
  O8       1.0000 0.36610  0.19458  0.07322  Biso   1.000  O
  O9       1.0000 0.07322  0.36610  0.36610  Biso   1.000  O
  O10      1.0000 0.19458  0.36610  0.36610  Biso   1.000  O
  O11      1.0000 0.36610  0.19458  0.36610  Biso   1.000  O
  O12      1.0000 0.36610  0.07322  0.36610  Biso   1.000  O
  O13      1.0000 0.07322  0.36610  0.19458  Biso   1.000  O
  O14      1.0000 0.19458  0.36610  0.07322  Biso   1.000  O
  O15      1.0000 0.63390  0.63390  0.92678  Biso   1.000  O
  O16      1.0000 0.63390  0.63390  0.80542  Biso   1.000  O
  O17      1.0000 0.80542  0.92678  0.63390  Biso   1.000  O
  O18      1.0000 0.92678  0.80542  0.63390  Biso   1.000  O
  O19      1.0000 0.92678  0.63390  0.80542  Biso   1.000  O
  O20      1.0000 0.80542  0.63390  0.92678  Biso   1.000  O
  O21      1.0000 0.63390  0.92678  0.63390  Biso   1.000  O
  O22      1.0000 0.63390  0.80542  0.63390  Biso   1.000  O
  O23      1.0000 0.80542  0.63390  0.63390  Biso   1.000  O
  O24      1.0000 0.92678  0.63390  0.63390  Biso   1.000  O
  O25      1.0000 0.63390  0.92678  0.80542  Biso   1.000  O
  O26      1.0000 0.63390  0.80542  0.92678  Biso   1.000  O
  Zn9      1.0000 0.07976  0.58359  0.58639  Biso   1.000  Zn
  Zn10     1.0000 0.49043  0.17280  0.99726  Biso   1.000  Zn
  Zn11     1.0000 0.49043  0.99747  0.99726  Biso   1.000  Zn
  Zn12     1.0000 0.07975  0.40826  0.58639  Biso   1.000  Zn
  Zn13     1.0000 0.07930  0.58393  0.41082  Biso   1.000  Zn
  Zn14     1.0000 0.90403  0.58374  0.58649  Biso   1.000  Zn
  Zn15     1.0000 0.49089  0.99713  0.17283  Biso   1.000  Zn
  Zn16     1.0000 0.66615  0.99732  0.99715  Biso   1.000  Zn
  H25      1.0000 0.24071  0.23076  0.44243  Biso   1.000  H
  H26      1.0000 0.23694  0.44354  0.23015  Biso   1.000  H
  H27      1.0000 0.93605  0.23184  0.74697  Biso   1.000  H
  H28      1.0000 0.72055  0.44101  0.74927  Biso   1.000  H
  H29      1.0000 0.24152  0.44301  0.74446  Biso   1.000  H
  H30      1.0000 0.32947  0.83696  0.14121  Biso   1.000  H
  H31      1.0000 0.33324  0.83374  0.35349  Biso   1.000  H
  H32      1.0000 0.63413  0.83788  0.83668  Biso   1.000  H
  H33      1.0000 0.84963  0.83387  0.83437  Biso   1.000  H
  H34      1.0000 0.32865  0.35203  0.83918  Biso   1.000  H
  H35      1.0000 0.32947  0.35031  0.14121  Biso   1.000  H
  H36      1.0000 0.33324  0.13752  0.35349  Biso   1.000  H
  H37      1.0000 0.63413  0.34922  0.83668  Biso   1.000  H
  H38      1.0000 0.84963  0.14006  0.83437  Biso   1.000  H
  H39      1.0000 0.32866  0.13805  0.83918  Biso   1.000  H
  H40      1.0000 0.24071  0.74410  0.44243  Biso   1.000  H
  H41      1.0000 0.23694  0.74732  0.23015  Biso   1.000  H
  H42      1.0000 0.93605  0.74319  0.74697  Biso   1.000  H
  H43      1.0000 0.72055  0.74720  0.74927  Biso   1.000  H
  H44      1.0000 0.24153  0.22904  0.74446  Biso   1.000  H
  H45      1.0000 0.72144  0.74601  0.44454  Biso   1.000  H
  H46      1.0000 0.93587  0.74712  0.22785  Biso   1.000  H
  H47      1.0000 0.84875  0.83505  0.13910  Biso   1.000  H
  H48      1.0000 0.63431  0.83394  0.35580  Biso   1.000  H
  C49      1.0000 0.17429  0.39972  0.40593  Biso   1.000  C
  C50      1.0000 0.23404  0.34147  0.34457  Biso   1.000  C
  C51      1.0000 0.25855  0.25653  0.38006  Biso   1.000  C
  C52      1.0000 0.25639  0.38128  0.25622  Biso   1.000  C
  C53      1.0000 0.89449  0.40291  0.68379  Biso   1.000  C
  C54      1.0000 0.84025  0.34426  0.73925  Biso   1.000  C
  C55      1.0000 0.87369  0.25811  0.76502  Biso   1.000  C
  C56      1.0000 0.74832  0.37885  0.76682  Biso   1.000  C
  C57      1.0000 0.25747  0.38075  0.76462  Biso   1.000  C
  C58      1.0000 0.39589  0.90303  0.17771  Biso   1.000  C
  C59      1.0000 0.33614  0.84317  0.23908  Biso   1.000  C
  C60      1.0000 0.31163  0.81821  0.20358  Biso   1.000  C
  C61      1.0000 0.31379  0.81700  0.32742  Biso   1.000  C
  C62      1.0000 0.67569  0.90425  0.89985  Biso   1.000  C
  C63      1.0000 0.72993  0.84680  0.84440  Biso   1.000  C
  C64      1.0000 0.69649  0.81983  0.81863  Biso   1.000  C
  C65      1.0000 0.82186  0.81703  0.81682  Biso   1.000  C
  C66      1.0000 0.31271  0.32586  0.81903  Biso   1.000  C
  C67      1.0000 0.39589  0.18134  0.17771  Biso   1.000  C
  C68      1.0000 0.33615  0.23959  0.23908  Biso   1.000  C
  C69      1.0000 0.31163  0.32454  0.20358  Biso   1.000  C
  C70      1.0000 0.31379  0.19978  0.32742  Biso   1.000  C
  C71      1.0000 0.67569  0.17815  0.89985  Biso   1.000  C
  C72      1.0000 0.72993  0.23680  0.84440  Biso   1.000  C
  C73      1.0000 0.69649  0.32295  0.81863  Biso   1.000  C
  C74      1.0000 0.82186  0.20222  0.81682  Biso   1.000  C
  C75      1.0000 0.31271  0.20031  0.81903  Biso   1.000  C
  C76      1.0000 0.17429  0.67804  0.40593  Biso   1.000  C
  C77      1.0000 0.23404  0.73789  0.34457  Biso   1.000  C
  C78      1.0000 0.25855  0.76286  0.38006  Biso   1.000  C
  C79      1.0000 0.25639  0.76407  0.25622  Biso   1.000  C
  C80      1.0000 0.89449  0.67682  0.68379  Biso   1.000  C
  C81      1.0000 0.84025  0.73426  0.73925  Biso   1.000  C
  C82      1.0000 0.87369  0.76123  0.76502  Biso   1.000  C
  C83      1.0000 0.74832  0.76404  0.76682  Biso   1.000  C
  C84      1.0000 0.25747  0.25520  0.76462  Biso   1.000  C
  C85      1.0000 0.90119  0.67884  0.39912  Biso   1.000  C
  C86      1.0000 0.83883  0.73619  0.34677  Biso   1.000  C
  C87      1.0000 0.74870  0.76346  0.38237  Biso   1.000  C
  C88      1.0000 0.87361  0.76467  0.25502  Biso   1.000  C
  C89      1.0000 0.17280  0.40472  0.67577  Biso   1.000  C
  C90      1.0000 0.23295  0.34286  0.73935  Biso   1.000  C
  C91      1.0000 0.66899  0.90223  0.18453  Biso   1.000  C
  C92      1.0000 0.73135  0.84487  0.23687  Biso   1.000  C
  C93      1.0000 0.82148  0.81761  0.20127  Biso   1.000  C
  C94      1.0000 0.69657  0.81640  0.32862  Biso   1.000  C
  C95      1.0000 0.39738  0.17635  0.90787  Biso   1.000  C
  C96      1.0000 0.33723  0.23821  0.84430  Biso   1.000  C
  O27      1.0000 0.15413  0.48534  0.35991  Biso   1.000  O
  O28      1.0000 0.15544  0.35570  0.49036  Biso   1.000  O
  O29      1.0000 0.85448  0.48633  0.65722  Biso   1.000  O
  O30      1.0000 0.98101  0.35870  0.66123  Biso   1.000  O
  O31      1.0000 0.15365  0.48733  0.65842  Biso   1.000  O
  O32      1.0000 0.41605  0.92248  0.22374  Biso   1.000  O
  O33      1.0000 0.41474  0.92459  0.09328  Biso   1.000  O
  O34      1.0000 0.71570  0.92109  0.92642  Biso   1.000  O
  O35      1.0000 0.58917  0.92399  0.92241  Biso   1.000  O
  O36      1.0000 0.41653  0.22246  0.92522  Biso   1.000  O
  O37      1.0000 0.41605  0.09572  0.22374  Biso   1.000  O
  O38      1.0000 0.41474  0.22536  0.09328  Biso   1.000  O
  O39      1.0000 0.71570  0.09473  0.92642  Biso   1.000  O
  O40      1.0000 0.58917  0.22236  0.92241  Biso   1.000  O
  O41      1.0000 0.41653  0.09373  0.92522  Biso   1.000  O
  O42      1.0000 0.15413  0.65859  0.35991  Biso   1.000  O
  O43      1.0000 0.15544  0.65648  0.49036  Biso   1.000  O
  O44      1.0000 0.85448  0.65998  0.65722  Biso   1.000  O
  O45      1.0000 0.98101  0.65707  0.66123  Biso   1.000  O
  O46      1.0000 0.15365  0.35860  0.65842  Biso   1.000  O
  O47      1.0000 0.03644  0.53967  0.54221  Biso   1.000  O
  O48      1.0000 0.98220  0.65759  0.36061  Biso   1.000  O
  O49      1.0000 0.85588  0.65989  0.48234  Biso   1.000  O
  O50      1.0000 0.53374  0.04139  0.04144  Biso   1.000  O
  O51      1.0000 0.58799  0.92348  0.22303  Biso   1.000  O
  O52      1.0000 0.71430  0.92118  0.10130  Biso   1.000  O
