data_image0
_cell_length_a       18.2751
_cell_length_b       18.2751
_cell_length_c       18.2751
_cell_angle_alpha    60
_cell_angle_beta     60
_cell_angle_gamma    60

_symmetry_space_group_name_H-M    "P 1"
_symmetry_int_tables_number       1

loop_
  _symmetry_equiv_pos_as_xyz
  'x, y, z'

loop_
  _atom_site_label
  _atom_site_occupancy
  _atom_site_fract_x
  _atom_site_fract_y
  _atom_site_fract_z
  _atom_site_thermal_displace_type
  _atom_site_B_iso_or_equiv
  _atom_site_type_symbol
  C1       1.0000 0.29350  0.29349  0.11952  Biso   1.000  C
  C2       1.0000 0.29350  0.29349  0.29349  Biso   1.000  C
  C3       1.0000 0.11953  0.29349  0.29349  Biso   1.000  C
  C4       1.0000 0.29350  0.11952  0.29349  Biso   1.000  C
  C5       1.0000 0.70650  0.70651  0.88048  Biso   1.000  C
  C6       1.0000 0.70650  0.70651  0.70651  Biso   1.000  C
  C7       1.0000 0.70650  0.88048  0.70651  Biso   1.000  C
  C8       1.0000 0.88047  0.70651  0.70651  Biso   1.000  C
  C9       1.0000 0.45530  0.45530  0.93570  Biso   1.000  C
  C10      1.0000 0.45530  0.45530  0.15370  Biso   1.000  C
  C11      1.0000 0.93570  0.15370  0.45530  Biso   1.000  C
  C12      1.0000 0.15370  0.93570  0.45530  Biso   1.000  C
  C13      1.0000 0.45530  0.93570  0.15370  Biso   1.000  C
  C14      1.0000 0.45530  0.15370  0.93570  Biso   1.000  C
  C15      1.0000 0.93570  0.45530  0.45530  Biso   1.000  C
  C16      1.0000 0.15370  0.45530  0.45530  Biso   1.000  C
  C17      1.0000 0.45530  0.15370  0.45530  Biso   1.000  C
  C18      1.0000 0.45530  0.93570  0.45530  Biso   1.000  C
  C19      1.0000 0.93570  0.45530  0.15370  Biso   1.000  C
  C20      1.0000 0.15370  0.45530  0.93570  Biso   1.000  C
  C21      1.0000 0.54470  0.54470  0.06430  Biso   1.000  C
  C22      1.0000 0.54470  0.54470  0.84630  Biso   1.000  C
  C23      1.0000 0.84630  0.06430  0.54470  Biso   1.000  C
  C24      1.0000 0.06430  0.84630  0.54470  Biso   1.000  C
  C25      1.0000 0.06430  0.54470  0.84630  Biso   1.000  C
  C26      1.0000 0.84630  0.54470  0.06430  Biso   1.000  C
  C27      1.0000 0.54470  0.06430  0.54470  Biso   1.000  C
  C28      1.0000 0.54470  0.84630  0.54470  Biso   1.000  C
  C29      1.0000 0.84630  0.54470  0.54470  Biso   1.000  C
  C30      1.0000 0.06430  0.54470  0.54470  Biso   1.000  C
  C31      1.0000 0.54470  0.06430  0.84630  Biso   1.000  C
  C32      1.0000 0.54470  0.84630  0.06430  Biso   1.000  C
  C33      1.0000 0.47331  0.47331  0.96231  Biso   1.000  C
  C34      1.0000 0.47331  0.47331  0.09107  Biso   1.000  C
  C35      1.0000 0.96231  0.09107  0.47331  Biso   1.000  C
  C36      1.0000 0.09107  0.96231  0.47331  Biso   1.000  C
  C37      1.0000 0.47331  0.96231  0.09107  Biso   1.000  C
  C38      1.0000 0.47331  0.09107  0.96231  Biso   1.000  C
  C39      1.0000 0.96231  0.47331  0.47331  Biso   1.000  C
  C40      1.0000 0.09107  0.47331  0.47331  Biso   1.000  C
  C41      1.0000 0.47331  0.09107  0.47331  Biso   1.000  C
  C42      1.0000 0.47331  0.96231  0.47331  Biso   1.000  C
  C43      1.0000 0.96231  0.47331  0.09107  Biso   1.000  C
  C44      1.0000 0.09107  0.47331  0.96231  Biso   1.000  C
  C45      1.0000 0.52669  0.52669  0.03769  Biso   1.000  C
  C46      1.0000 0.52669  0.52669  0.90893  Biso   1.000  C
  C47      1.0000 0.90893  0.03769  0.52669  Biso   1.000  C
  C48      1.0000 0.03769  0.90893  0.52669  Biso   1.000  C
  C49      1.0000 0.03769  0.52669  0.90893  Biso   1.000  C
  C50      1.0000 0.90893  0.52669  0.03769  Biso   1.000  C
  C51      1.0000 0.52669  0.03769  0.52669  Biso   1.000  C
  C52      1.0000 0.52669  0.90893  0.52669  Biso   1.000  C
  C53      1.0000 0.90893  0.52669  0.52669  Biso   1.000  C
  C54      1.0000 0.03769  0.52669  0.52669  Biso   1.000  C
  C55      1.0000 0.52669  0.03769  0.90893  Biso   1.000  C
  C56      1.0000 0.52669  0.90893  0.03769  Biso   1.000  C
  C57      1.0000 0.38853  0.38853  0.11147  Biso   1.000  C
  C58      1.0000 0.44625  0.44625  0.05375  Biso   1.000  C
  C59      1.0000 0.11147  0.11147  0.38853  Biso   1.000  C
  C60      1.0000 0.05375  0.05375  0.44625  Biso   1.000  C
  C61      1.0000 0.38853  0.11147  0.11147  Biso   1.000  C
  C62      1.0000 0.44625  0.05375  0.05375  Biso   1.000  C
  C63      1.0000 0.11147  0.38853  0.38853  Biso   1.000  C
  C64      1.0000 0.05375  0.44625  0.44625  Biso   1.000  C
  C65      1.0000 0.38853  0.11147  0.38853  Biso   1.000  C
  C66      1.0000 0.44625  0.05375  0.44625  Biso   1.000  C
  C67      1.0000 0.11147  0.38853  0.11147  Biso   1.000  C
  C68      1.0000 0.05375  0.44625  0.05375  Biso   1.000  C
  C69      1.0000 0.61147  0.61147  0.88853  Biso   1.000  C
  C70      1.0000 0.55375  0.55375  0.94625  Biso   1.000  C
  C71      1.0000 0.88853  0.88853  0.61147  Biso   1.000  C
  C72      1.0000 0.94625  0.94625  0.55375  Biso   1.000  C
  C73      1.0000 0.88853  0.61147  0.88853  Biso   1.000  C
  C74      1.0000 0.94625  0.55375  0.94625  Biso   1.000  C
  C75      1.0000 0.61147  0.88853  0.61147  Biso   1.000  C
  C76      1.0000 0.55375  0.94625  0.55375  Biso   1.000  C
  C77      1.0000 0.88853  0.61147  0.61147  Biso   1.000  C
  C78      1.0000 0.94625  0.55375  0.55375  Biso   1.000  C
  C79      1.0000 0.61147  0.88853  0.88853  Biso   1.000  C
  C80      1.0000 0.55375  0.94625  0.94625  Biso   1.000  C
  C81      1.0000 0.25000  0.25000  0.25000  Biso   1.000  C
  C82      1.0000 0.75000  0.75000  0.75000  Biso   1.000  C
  C83      1.0000 0.36609  0.36609  0.07299  Biso   1.000  C
  C84      1.0000 0.36609  0.36609  0.19483  Biso   1.000  C
  C85      1.0000 0.07299  0.19483  0.36609  Biso   1.000  C
  C86      1.0000 0.19483  0.07299  0.36609  Biso   1.000  C
  C87      1.0000 0.36609  0.07299  0.19483  Biso   1.000  C
  C88      1.0000 0.36609  0.19483  0.07299  Biso   1.000  C
  C89      1.0000 0.07299  0.36609  0.36609  Biso   1.000  C
  C90      1.0000 0.19483  0.36609  0.36609  Biso   1.000  C
  C91      1.0000 0.36609  0.19483  0.36609  Biso   1.000  C
  C92      1.0000 0.36609  0.07299  0.36609  Biso   1.000  C
  C93      1.0000 0.07299  0.36609  0.19483  Biso   1.000  C
  C94      1.0000 0.19483  0.36609  0.07299  Biso   1.000  C
  C95      1.0000 0.63391  0.63391  0.92701  Biso   1.000  C
  C96      1.0000 0.63391  0.63391  0.80517  Biso   1.000  C
  C97      1.0000 0.80517  0.92701  0.63391  Biso   1.000  C
  C98      1.0000 0.92701  0.80517  0.63391  Biso   1.000  C
  C99      1.0000 0.92701  0.63391  0.80517  Biso   1.000  C
  C100     1.0000 0.80517  0.63391  0.92701  Biso   1.000  C
  C101     1.0000 0.63391  0.92701  0.63391  Biso   1.000  C
  C102     1.0000 0.63391  0.80517  0.63391  Biso   1.000  C
  C103     1.0000 0.80517  0.63391  0.63391  Biso   1.000  C
  C104     1.0000 0.92701  0.63391  0.63391  Biso   1.000  C
  C105     1.0000 0.63391  0.92701  0.80517  Biso   1.000  C
  C106     1.0000 0.63391  0.80517  0.92701  Biso   1.000  C
  O1       1.0000 0.50111  0.51859  0.33408  Biso   1.000  O
  O2       1.0000 0.50111  0.51859  0.50748  Biso   1.000  O
  O3       1.0000 0.32771  0.51859  0.50748  Biso   1.000  O
  O4       1.0000 0.50111  0.34520  0.50748  Biso   1.000  O
  O5       1.0000 0.91143  0.92891  0.09120  Biso   1.000  O
  O6       1.0000 0.91143  0.92891  0.91780  Biso   1.000  O
  O7       1.0000 0.91143  0.10231  0.91780  Biso   1.000  O
  O8       1.0000 0.08483  0.92891  0.91780  Biso   1.000  O
  O9       1.0000 0.66233  0.67982  0.14704  Biso   1.000  O
  O10      1.0000 0.66233  0.67982  0.36612  Biso   1.000  O
  O11      1.0000 0.14066  0.37723  0.66871  Biso   1.000  O
  O12      1.0000 0.35975  0.15815  0.66871  Biso   1.000  O
  O13      1.0000 0.66233  0.15815  0.36612  Biso   1.000  O
  O14      1.0000 0.66233  0.37723  0.14704  Biso   1.000  O
  O15      1.0000 0.14066  0.67982  0.66871  Biso   1.000  O
  O16      1.0000 0.35975  0.67982  0.66871  Biso   1.000  O
  O17      1.0000 0.66233  0.37723  0.66871  Biso   1.000  O
  O18      1.0000 0.66233  0.15815  0.66871  Biso   1.000  O
  O19      1.0000 0.14066  0.67982  0.36612  Biso   1.000  O
  O20      1.0000 0.35975  0.67982  0.14704  Biso   1.000  O
  O21      1.0000 0.75020  0.76769  0.27825  Biso   1.000  O
  O22      1.0000 0.75020  0.76769  0.05916  Biso   1.000  O
  O23      1.0000 0.05279  0.28936  0.75658  Biso   1.000  O
  O24      1.0000 0.27187  0.07027  0.75658  Biso   1.000  O
  O25      1.0000 0.27187  0.76769  0.05916  Biso   1.000  O
  O26      1.0000 0.05279  0.76769  0.27825  Biso   1.000  O
  O27      1.0000 0.75020  0.28936  0.75658  Biso   1.000  O
  O28      1.0000 0.75020  0.07027  0.75658  Biso   1.000  O
  O29      1.0000 0.05279  0.76769  0.75658  Biso   1.000  O
  O30      1.0000 0.27187  0.76769  0.75658  Biso   1.000  O
  O31      1.0000 0.75020  0.28936  0.05916  Biso   1.000  O
  O32      1.0000 0.75020  0.07027  0.27825  Biso   1.000  O
  O33      1.0000 0.67993  0.69741  0.17377  Biso   1.000  O
  O34      1.0000 0.67993  0.69741  0.30419  Biso   1.000  O
  O35      1.0000 0.16740  0.31530  0.68630  Biso   1.000  O
  O36      1.0000 0.29782  0.18489  0.68630  Biso   1.000  O
  O37      1.0000 0.67993  0.18489  0.30419  Biso   1.000  O
  O38      1.0000 0.67993  0.31530  0.17377  Biso   1.000  O
  O39      1.0000 0.16740  0.69741  0.68630  Biso   1.000  O
  O40      1.0000 0.29782  0.69741  0.68630  Biso   1.000  O
  O41      1.0000 0.67993  0.31530  0.68630  Biso   1.000  O
  O42      1.0000 0.67993  0.18489  0.68630  Biso   1.000  O
  O43      1.0000 0.16740  0.69741  0.30419  Biso   1.000  O
  O44      1.0000 0.29782  0.69741  0.17377  Biso   1.000  O
  O45      1.0000 0.73261  0.75009  0.25151  Biso   1.000  O
  O46      1.0000 0.73261  0.75009  0.12109  Biso   1.000  O
  O47      1.0000 0.11472  0.26262  0.73898  Biso   1.000  O
  O48      1.0000 0.24514  0.13220  0.73898  Biso   1.000  O
  O49      1.0000 0.24514  0.75009  0.12109  Biso   1.000  O
  O50      1.0000 0.11472  0.75009  0.25151  Biso   1.000  O
  O51      1.0000 0.73261  0.26262  0.73898  Biso   1.000  O
  O52      1.0000 0.73261  0.13220  0.73898  Biso   1.000  O
  O53      1.0000 0.11472  0.75009  0.73898  Biso   1.000  O
  O54      1.0000 0.24514  0.75009  0.73898  Biso   1.000  O
  O55      1.0000 0.73261  0.26262  0.12109  Biso   1.000  O
  O56      1.0000 0.73261  0.13220  0.25151  Biso   1.000  O
  O57      1.0000 0.59543  0.61292  0.32646  Biso   1.000  O
  O58      1.0000 0.65319  0.67067  0.26871  Biso   1.000  O
  O59      1.0000 0.32009  0.33757  0.60181  Biso   1.000  O
  O60      1.0000 0.26233  0.27982  0.65956  Biso   1.000  O
  O61      1.0000 0.59543  0.33757  0.32646  Biso   1.000  O
  O62      1.0000 0.65319  0.27982  0.26871  Biso   1.000  O
  O63      1.0000 0.32009  0.61292  0.60181  Biso   1.000  O
  O64      1.0000 0.26233  0.67067  0.65956  Biso   1.000  O
  O65      1.0000 0.59543  0.33757  0.60181  Biso   1.000  O
  O66      1.0000 0.65319  0.27982  0.65956  Biso   1.000  O
  O67      1.0000 0.32009  0.61292  0.32646  Biso   1.000  O
  O68      1.0000 0.26233  0.67067  0.26871  Biso   1.000  O
  O69      1.0000 0.81710  0.83459  0.09882  Biso   1.000  O
  O70      1.0000 0.75935  0.77683  0.15658  Biso   1.000  O
  O71      1.0000 0.09245  0.10993  0.82348  Biso   1.000  O
  O72      1.0000 0.15020  0.16769  0.76572  Biso   1.000  O
  O73      1.0000 0.09245  0.83459  0.09882  Biso   1.000  O
  O74      1.0000 0.15020  0.77683  0.15658  Biso   1.000  O
  O75      1.0000 0.81710  0.10993  0.82348  Biso   1.000  O
  O76      1.0000 0.75935  0.16769  0.76572  Biso   1.000  O
  O77      1.0000 0.09245  0.83459  0.82348  Biso   1.000  O
  O78      1.0000 0.15020  0.77683  0.76572  Biso   1.000  O
  O79      1.0000 0.81710  0.10993  0.09882  Biso   1.000  O
  O80      1.0000 0.75935  0.16769  0.15658  Biso   1.000  O
  O81      1.0000 0.45776  0.47524  0.46413  Biso   1.000  O
  O82      1.0000 0.95478  0.97226  0.96115  Biso   1.000  O
  O83      1.0000 0.57316  0.59064  0.28870  Biso   1.000  O
  O84      1.0000 0.57316  0.59064  0.40878  Biso   1.000  O
  O85      1.0000 0.28232  0.41989  0.57953  Biso   1.000  O
  O86      1.0000 0.40240  0.29981  0.57953  Biso   1.000  O
  O87      1.0000 0.57316  0.29981  0.40878  Biso   1.000  O
  O88      1.0000 0.57316  0.41989  0.28870  Biso   1.000  O
  O89      1.0000 0.28232  0.59064  0.57953  Biso   1.000  O
  O90      1.0000 0.40240  0.59064  0.57953  Biso   1.000  O
  O91      1.0000 0.57316  0.41989  0.57953  Biso   1.000  O
  O92      1.0000 0.57316  0.29981  0.57953  Biso   1.000  O
  O93      1.0000 0.28232  0.59064  0.40878  Biso   1.000  O
  O94      1.0000 0.40240  0.59064  0.28870  Biso   1.000  O
  O95      1.0000 0.83938  0.85686  0.13659  Biso   1.000  O
  O96      1.0000 0.83938  0.85686  0.01651  Biso   1.000  O
  O97      1.0000 0.01013  0.14770  0.84575  Biso   1.000  O
  O98      1.0000 0.13021  0.02762  0.84575  Biso   1.000  O
  O99      1.0000 0.13021  0.85686  0.01651  Biso   1.000  O
  O100     1.0000 0.01013  0.85686  0.13659  Biso   1.000  O
  O101     1.0000 0.83938  0.14770  0.84575  Biso   1.000  O
  O102     1.0000 0.83938  0.02762  0.84575  Biso   1.000  O
  O103     1.0000 0.01013  0.85686  0.84575  Biso   1.000  O
  O104     1.0000 0.13021  0.85686  0.84575  Biso   1.000  O
  O105     1.0000 0.83938  0.14770  0.01651  Biso   1.000  O
  O106     1.0000 0.83938  0.02762  0.13659  Biso   1.000  O
