data_image0
_cell_length_a       18.2455
_cell_length_b       18.2455
_cell_length_c       18.2455
_cell_angle_alpha    60
_cell_angle_beta     60
_cell_angle_gamma    60

_symmetry_space_group_name_H-M    "P 1"
_symmetry_int_tables_number       1

loop_
  _symmetry_equiv_pos_as_xyz
  'x, y, z'

loop_
  _atom_site_label
  _atom_site_occupancy
  _atom_site_fract_x
  _atom_site_fract_y
  _atom_site_fract_z
  _atom_site_thermal_displace_type
  _atom_site_B_iso_or_equiv
  _atom_site_type_symbol
  Zn1      1.0000 0.29354  0.29354  0.11938  Biso   1.000  Zn
  Zn2      1.0000 0.29354  0.29354  0.29354  Biso   1.000  Zn
  Zn3      1.0000 0.11938  0.29354  0.29354  Biso   1.000  Zn
  Zn4      1.0000 0.29354  0.11938  0.29354  Biso   1.000  Zn
  Zn5      1.0000 0.70646  0.70646  0.88062  Biso   1.000  Zn
  Zn6      1.0000 0.70646  0.70646  0.70646  Biso   1.000  Zn
  Zn7      1.0000 0.70646  0.88062  0.70646  Biso   1.000  Zn
  Zn8      1.0000 0.88062  0.70646  0.70646  Biso   1.000  Zn
  H1       1.0000 0.45580  0.45580  0.93620  Biso   1.000  H
  H2       1.0000 0.45580  0.45580  0.15220  Biso   1.000  H
  H3       1.0000 0.93620  0.15220  0.45580  Biso   1.000  H
  H4       1.0000 0.15220  0.93620  0.45580  Biso   1.000  H
  H5       1.0000 0.45580  0.93620  0.15220  Biso   1.000  H
  H6       1.0000 0.45580  0.15220  0.93620  Biso   1.000  H
  H7       1.0000 0.93620  0.45580  0.45580  Biso   1.000  H
  H8       1.0000 0.15220  0.45580  0.45580  Biso   1.000  H
  H9       1.0000 0.45580  0.15220  0.45580  Biso   1.000  H
  H10      1.0000 0.45580  0.93620  0.45580  Biso   1.000  H
  H11      1.0000 0.93620  0.45580  0.15220  Biso   1.000  H
  H12      1.0000 0.15220  0.45580  0.93620  Biso   1.000  H
  H13      1.0000 0.54420  0.54420  0.06380  Biso   1.000  H
  H14      1.0000 0.54420  0.54420  0.84780  Biso   1.000  H
  H15      1.0000 0.84780  0.06380  0.54420  Biso   1.000  H
  H16      1.0000 0.06380  0.84780  0.54420  Biso   1.000  H
  H17      1.0000 0.06380  0.54420  0.84780  Biso   1.000  H
  H18      1.0000 0.84780  0.54420  0.06380  Biso   1.000  H
  H19      1.0000 0.54420  0.06380  0.54420  Biso   1.000  H
  H20      1.0000 0.54420  0.84780  0.54420  Biso   1.000  H
  H21      1.0000 0.84780  0.54420  0.54420  Biso   1.000  H
  H22      1.0000 0.06380  0.54420  0.54420  Biso   1.000  H
  H23      1.0000 0.54420  0.06380  0.84780  Biso   1.000  H
  H24      1.0000 0.54420  0.84780  0.06380  Biso   1.000  H
  C1       1.0000 0.47345  0.47345  0.96303  Biso   1.000  C
  C2       1.0000 0.47345  0.47345  0.09007  Biso   1.000  C
  C3       1.0000 0.96303  0.09007  0.47345  Biso   1.000  C
  C4       1.0000 0.09007  0.96303  0.47345  Biso   1.000  C
  C5       1.0000 0.47345  0.96303  0.09007  Biso   1.000  C
  C6       1.0000 0.47345  0.09007  0.96303  Biso   1.000  C
  C7       1.0000 0.96303  0.47345  0.47345  Biso   1.000  C
  C8       1.0000 0.09007  0.47345  0.47345  Biso   1.000  C
  C9       1.0000 0.47345  0.09007  0.47345  Biso   1.000  C
  C10      1.0000 0.47345  0.96303  0.47345  Biso   1.000  C
  C11      1.0000 0.96303  0.47345  0.09007  Biso   1.000  C
  C12      1.0000 0.09007  0.47345  0.96303  Biso   1.000  C
  C13      1.0000 0.52655  0.52655  0.03697  Biso   1.000  C
  C14      1.0000 0.52655  0.52655  0.90993  Biso   1.000  C
  C15      1.0000 0.90993  0.03697  0.52655  Biso   1.000  C
  C16      1.0000 0.03697  0.90993  0.52655  Biso   1.000  C
  C17      1.0000 0.03697  0.52655  0.90993  Biso   1.000  C
  C18      1.0000 0.90993  0.52655  0.03697  Biso   1.000  C
  C19      1.0000 0.52655  0.03697  0.52655  Biso   1.000  C
  C20      1.0000 0.52655  0.90993  0.52655  Biso   1.000  C
  C21      1.0000 0.90993  0.52655  0.52655  Biso   1.000  C
  C22      1.0000 0.03697  0.52655  0.52655  Biso   1.000  C
  C23      1.0000 0.52655  0.03697  0.90993  Biso   1.000  C
  C24      1.0000 0.52655  0.90993  0.03697  Biso   1.000  C
  C25      1.0000 0.38857  0.38857  0.11143  Biso   1.000  C
  C26      1.0000 0.44620  0.44620  0.05380  Biso   1.000  C
  C27      1.0000 0.11143  0.11143  0.38857  Biso   1.000  C
  C28      1.0000 0.05380  0.05380  0.44620  Biso   1.000  C
  C29      1.0000 0.38857  0.11143  0.11143  Biso   1.000  C
  C30      1.0000 0.44620  0.05380  0.05380  Biso   1.000  C
  C31      1.0000 0.11143  0.38857  0.38857  Biso   1.000  C
  C32      1.0000 0.05380  0.44620  0.44620  Biso   1.000  C
  C33      1.0000 0.38857  0.11143  0.38857  Biso   1.000  C
  C34      1.0000 0.44620  0.05380  0.44620  Biso   1.000  C
  C35      1.0000 0.11143  0.38857  0.11143  Biso   1.000  C
  C36      1.0000 0.05380  0.44620  0.05380  Biso   1.000  C
  C37      1.0000 0.61143  0.61143  0.88857  Biso   1.000  C
  C38      1.0000 0.55380  0.55380  0.94620  Biso   1.000  C
  C39      1.0000 0.88857  0.88857  0.61143  Biso   1.000  C
  C40      1.0000 0.94620  0.94620  0.55380  Biso   1.000  C
  C41      1.0000 0.88857  0.61143  0.88857  Biso   1.000  C
  C42      1.0000 0.94620  0.55380  0.94620  Biso   1.000  C
  C43      1.0000 0.61143  0.88857  0.61143  Biso   1.000  C
  C44      1.0000 0.55380  0.94620  0.55380  Biso   1.000  C
  C45      1.0000 0.88857  0.61143  0.61143  Biso   1.000  C
  C46      1.0000 0.94620  0.55380  0.55380  Biso   1.000  C
  C47      1.0000 0.61143  0.88857  0.88857  Biso   1.000  C
  C48      1.0000 0.55380  0.94620  0.94620  Biso   1.000  C
  O1       1.0000 0.25000  0.25000  0.25000  Biso   1.000  O
  O2       1.0000 0.75000  0.75000  0.75000  Biso   1.000  O
  O3       1.0000 0.36603  0.36603  0.07311  Biso   1.000  O
  O4       1.0000 0.36603  0.36603  0.19483  Biso   1.000  O
  O5       1.0000 0.07311  0.19483  0.36603  Biso   1.000  O
  O6       1.0000 0.19483  0.07311  0.36603  Biso   1.000  O
  O7       1.0000 0.36603  0.07311  0.19483  Biso   1.000  O
  O8       1.0000 0.36603  0.19483  0.07311  Biso   1.000  O
  O9       1.0000 0.07311  0.36603  0.36603  Biso   1.000  O
  O10      1.0000 0.19483  0.36603  0.36603  Biso   1.000  O
  O11      1.0000 0.36603  0.19483  0.36603  Biso   1.000  O
  O12      1.0000 0.36603  0.07311  0.36603  Biso   1.000  O
  O13      1.0000 0.07311  0.36603  0.19483  Biso   1.000  O
  O14      1.0000 0.19483  0.36603  0.07311  Biso   1.000  O
  O15      1.0000 0.63397  0.63397  0.92689  Biso   1.000  O
  O16      1.0000 0.63397  0.63397  0.80517  Biso   1.000  O
  O17      1.0000 0.80517  0.92689  0.63397  Biso   1.000  O
  O18      1.0000 0.92689  0.80517  0.63397  Biso   1.000  O
  O19      1.0000 0.92689  0.63397  0.80517  Biso   1.000  O
  O20      1.0000 0.80517  0.63397  0.92689  Biso   1.000  O
  O21      1.0000 0.63397  0.92689  0.63397  Biso   1.000  O
  O22      1.0000 0.63397  0.80517  0.63397  Biso   1.000  O
  O23      1.0000 0.80517  0.63397  0.63397  Biso   1.000  O
  O24      1.0000 0.92689  0.63397  0.63397  Biso   1.000  O
  O25      1.0000 0.63397  0.92689  0.80517  Biso   1.000  O
  O26      1.0000 0.63397  0.80517  0.92689  Biso   1.000  O
  Zn9      1.0000 0.89421  0.75696  0.43239  Biso   1.000  Zn
  Zn10     1.0000 0.06882  0.75696  0.25778  Biso   1.000  Zn
  Zn11     1.0000 0.89421  0.75696  0.25778  Biso   1.000  Zn
  Zn12     1.0000 0.89421  0.93158  0.25778  Biso   1.000  Zn
  Zn13     1.0000 0.48865  0.34189  0.66810  Biso   1.000  Zn
  Zn14     1.0000 0.31403  0.34190  0.84272  Biso   1.000  Zn
  Zn15     1.0000 0.48865  0.16728  0.84271  Biso   1.000  Zn
  Zn16     1.0000 0.48865  0.34190  0.84272  Biso   1.000  Zn
  H25      1.0000 0.03777  0.59474  0.61328  Biso   1.000  H
  H26      1.0000 0.25446  0.59474  0.39658  Biso   1.000  H
  H27      1.0000 0.73674  0.89577  0.09556  Biso   1.000  H
  H28      1.0000 0.73674  0.11246  0.09556  Biso   1.000  H
  H29      1.0000 0.73674  0.11246  0.39658  Biso   1.000  H
  H30      1.0000 0.73674  0.89577  0.61328  Biso   1.000  H
  H31      1.0000 0.03777  0.59474  0.09556  Biso   1.000  H
  H32      1.0000 0.25446  0.59474  0.09556  Biso   1.000  H
  H33      1.0000 0.25446  0.89577  0.09556  Biso   1.000  H
  H34      1.0000 0.03777  0.11246  0.09556  Biso   1.000  H
  H35      1.0000 0.73674  0.59474  0.39658  Biso   1.000  H
  H36      1.0000 0.73674  0.59474  0.61328  Biso   1.000  H
  H37      1.0000 0.34509  0.50411  0.48721  Biso   1.000  H
  H38      1.0000 0.12840  0.50411  0.70391  Biso   1.000  H
  H39      1.0000 0.64611  0.98640  0.00493  Biso   1.000  H
  H40      1.0000 0.64611  0.20309  0.00493  Biso   1.000  H
  H41      1.0000 0.64611  0.50411  0.70391  Biso   1.000  H
  H42      1.0000 0.64611  0.50411  0.48721  Biso   1.000  H
  H43      1.0000 0.34509  0.98640  0.00493  Biso   1.000  H
  H44      1.0000 0.12840  0.20309  0.00493  Biso   1.000  H
  H45      1.0000 0.12840  0.50411  0.00493  Biso   1.000  H
  H46      1.0000 0.34509  0.50411  0.00493  Biso   1.000  H
  H47      1.0000 0.64611  0.98640  0.70391  Biso   1.000  H
  H48      1.0000 0.64611  0.20309  0.48721  Biso   1.000  H
  C49      1.0000 0.10139  0.57642  0.58631  Biso   1.000  C
  C50      1.0000 0.22749  0.57642  0.46021  Biso   1.000  C
  C51      1.0000 0.71842  0.95939  0.07723  Biso   1.000  C
  C52      1.0000 0.71842  0.08549  0.07723  Biso   1.000  C
  C53      1.0000 0.71842  0.08549  0.46021  Biso   1.000  C
  C54      1.0000 0.71842  0.95939  0.58631  Biso   1.000  C
  C55      1.0000 0.10139  0.57642  0.07723  Biso   1.000  C
  C56      1.0000 0.22749  0.57642  0.07723  Biso   1.000  C
  C57      1.0000 0.22749  0.95939  0.07723  Biso   1.000  C
  C58      1.0000 0.10139  0.08549  0.07723  Biso   1.000  C
  C59      1.0000 0.71842  0.57642  0.46021  Biso   1.000  C
  C60      1.0000 0.71842  0.57642  0.58631  Biso   1.000  C
  C61      1.0000 0.28147  0.52244  0.51418  Biso   1.000  C
  C62      1.0000 0.15536  0.52244  0.64029  Biso   1.000  C
  C63      1.0000 0.66444  0.01336  0.02326  Biso   1.000  C
  C64      1.0000 0.66444  0.13947  0.02326  Biso   1.000  C
  C65      1.0000 0.66444  0.52244  0.64029  Biso   1.000  C
  C66      1.0000 0.66444  0.52244  0.51418  Biso   1.000  C
  C67      1.0000 0.28147  0.01336  0.02326  Biso   1.000  C
  C68      1.0000 0.15536  0.13947  0.02326  Biso   1.000  C
  C69      1.0000 0.15536  0.52244  0.02326  Biso   1.000  C
  C70      1.0000 0.28147  0.52244  0.02326  Biso   1.000  C
  C71      1.0000 0.66444  0.01336  0.64029  Biso   1.000  C
  C72      1.0000 0.66444  0.13947  0.51418  Biso   1.000  C
  C73      1.0000 0.07701  0.66147  0.44058  Biso   1.000  C
  C74      1.0000 0.13504  0.60344  0.49861  Biso   1.000  C
  C75      1.0000 0.79872  0.93977  0.16229  Biso   1.000  C
  C76      1.0000 0.74069  0.99779  0.10426  Biso   1.000  C
  C77      1.0000 0.79872  0.93977  0.44058  Biso   1.000  C
  C78      1.0000 0.74069  0.99779  0.49861  Biso   1.000  C
  C79      1.0000 0.07701  0.66147  0.16229  Biso   1.000  C
  C80      1.0000 0.13504  0.60344  0.10426  Biso   1.000  C
  C81      1.0000 0.07701  0.93977  0.16229  Biso   1.000  C
  C82      1.0000 0.13504  0.99779  0.10426  Biso   1.000  C
  C83      1.0000 0.79872  0.66147  0.44058  Biso   1.000  C
  C84      1.0000 0.74069  0.60344  0.49861  Biso   1.000  C
  C85      1.0000 0.30584  0.43739  0.65991  Biso   1.000  C
  C86      1.0000 0.24782  0.49541  0.60189  Biso   1.000  C
  C87      1.0000 0.58414  0.15909  0.93821  Biso   1.000  C
  C88      1.0000 0.64217  0.10107  0.99623  Biso   1.000  C
  C89      1.0000 0.58414  0.43739  0.65991  Biso   1.000  C
  C90      1.0000 0.64217  0.49541  0.60189  Biso   1.000  C
  C91      1.0000 0.30584  0.15909  0.93821  Biso   1.000  C
  C92      1.0000 0.24782  0.10107  0.99623  Biso   1.000  C
  C93      1.0000 0.30584  0.43739  0.93821  Biso   1.000  C
  C94      1.0000 0.24782  0.49541  0.99623  Biso   1.000  C
  C95      1.0000 0.58414  0.15909  0.65991  Biso   1.000  C
  C96      1.0000 0.64217  0.10107  0.60189  Biso   1.000  C
  O27      1.0000 0.93786  0.80062  0.30143  Biso   1.000  O
  O28      1.0000 0.44499  0.29824  0.79906  Biso   1.000  O
  O29      1.0000 0.99339  0.68386  0.47942  Biso   1.000  O
  O30      1.0000 0.11585  0.68386  0.35696  Biso   1.000  O
  O31      1.0000 0.82111  0.85614  0.18468  Biso   1.000  O
  O32      1.0000 0.82111  0.97860  0.18468  Biso   1.000  O
  O33      1.0000 0.82111  0.97860  0.35696  Biso   1.000  O
  O34      1.0000 0.82111  0.85614  0.47942  Biso   1.000  O
  O35      1.0000 0.99339  0.68386  0.18468  Biso   1.000  O
  O36      1.0000 0.11585  0.68386  0.18468  Biso   1.000  O
  O37      1.0000 0.11585  0.85614  0.18468  Biso   1.000  O
  O38      1.0000 0.99339  0.97860  0.18468  Biso   1.000  O
  O39      1.0000 0.82111  0.68386  0.35696  Biso   1.000  O
  O40      1.0000 0.82111  0.68386  0.47942  Biso   1.000  O
  O41      1.0000 0.38947  0.41499  0.62108  Biso   1.000  O
  O42      1.0000 0.26701  0.41499  0.74354  Biso   1.000  O
  O43      1.0000 0.56175  0.12026  0.91581  Biso   1.000  O
  O44      1.0000 0.56175  0.24272  0.91581  Biso   1.000  O
  O45      1.0000 0.56175  0.41499  0.74354  Biso   1.000  O
  O46      1.0000 0.56175  0.41499  0.62108  Biso   1.000  O
  O47      1.0000 0.38947  0.12026  0.91581  Biso   1.000  O
  O48      1.0000 0.26701  0.24272  0.91581  Biso   1.000  O
  O49      1.0000 0.26701  0.41499  0.91581  Biso   1.000  O
  O50      1.0000 0.38947  0.41499  0.91581  Biso   1.000  O
  O51      1.0000 0.56175  0.12026  0.74354  Biso   1.000  O
  O52      1.0000 0.56175  0.24272  0.62108  Biso   1.000  O
