data_image0
_cell_length_a       18.228
_cell_length_b       18.228
_cell_length_c       18.228
_cell_angle_alpha    60
_cell_angle_beta     60
_cell_angle_gamma    60

_symmetry_space_group_name_H-M    "P 1"
_symmetry_int_tables_number       1

loop_
  _symmetry_equiv_pos_as_xyz
  'x, y, z'

loop_
  _atom_site_label
  _atom_site_occupancy
  _atom_site_fract_x
  _atom_site_fract_y
  _atom_site_fract_z
  _atom_site_thermal_displace_type
  _atom_site_B_iso_or_equiv
  _atom_site_type_symbol
  Zn1      1.0000 0.29358  0.29359  0.11924  Biso   1.000  Zn
  Zn2      1.0000 0.29358  0.29359  0.29359  Biso   1.000  Zn
  Zn3      1.0000 0.11923  0.29359  0.29359  Biso   1.000  Zn
  Zn4      1.0000 0.29358  0.11924  0.29359  Biso   1.000  Zn
  Zn5      1.0000 0.70642  0.70641  0.88076  Biso   1.000  Zn
  Zn6      1.0000 0.70642  0.70641  0.70641  Biso   1.000  Zn
  Zn7      1.0000 0.70642  0.88076  0.70641  Biso   1.000  Zn
  Zn8      1.0000 0.88077  0.70641  0.70641  Biso   1.000  Zn
  H1       1.0000 0.45570  0.45570  0.93670  Biso   1.000  H
  H2       1.0000 0.45570  0.45570  0.15190  Biso   1.000  H
  H3       1.0000 0.93670  0.15190  0.45570  Biso   1.000  H
  H4       1.0000 0.15190  0.93670  0.45570  Biso   1.000  H
  H5       1.0000 0.45570  0.93670  0.15190  Biso   1.000  H
  H6       1.0000 0.45570  0.15190  0.93670  Biso   1.000  H
  H7       1.0000 0.93670  0.45570  0.45570  Biso   1.000  H
  H8       1.0000 0.15190  0.45570  0.45570  Biso   1.000  H
  H9       1.0000 0.45570  0.15190  0.45570  Biso   1.000  H
  H10      1.0000 0.45570  0.93670  0.45570  Biso   1.000  H
  H11      1.0000 0.93670  0.45570  0.15190  Biso   1.000  H
  H12      1.0000 0.15190  0.45570  0.93670  Biso   1.000  H
  H13      1.0000 0.54430  0.54430  0.06330  Biso   1.000  H
  H14      1.0000 0.54430  0.54430  0.84810  Biso   1.000  H
  H15      1.0000 0.84810  0.06330  0.54430  Biso   1.000  H
  H16      1.0000 0.06330  0.84810  0.54430  Biso   1.000  H
  H17      1.0000 0.06330  0.54430  0.84810  Biso   1.000  H
  H18      1.0000 0.84810  0.54430  0.06330  Biso   1.000  H
  H19      1.0000 0.54430  0.06330  0.54430  Biso   1.000  H
  H20      1.0000 0.54430  0.84810  0.54430  Biso   1.000  H
  H21      1.0000 0.84810  0.54430  0.54430  Biso   1.000  H
  H22      1.0000 0.06330  0.54430  0.54430  Biso   1.000  H
  H23      1.0000 0.54430  0.06330  0.84810  Biso   1.000  H
  H24      1.0000 0.54430  0.84810  0.06330  Biso   1.000  H
  C1       1.0000 0.47340  0.47340  0.96356  Biso   1.000  C
  C2       1.0000 0.47340  0.47340  0.08964  Biso   1.000  C
  C3       1.0000 0.96356  0.08964  0.47340  Biso   1.000  C
  C4       1.0000 0.08964  0.96356  0.47340  Biso   1.000  C
  C5       1.0000 0.47340  0.96356  0.08964  Biso   1.000  C
  C6       1.0000 0.47340  0.08964  0.96356  Biso   1.000  C
  C7       1.0000 0.96356  0.47340  0.47340  Biso   1.000  C
  C8       1.0000 0.08964  0.47340  0.47340  Biso   1.000  C
  C9       1.0000 0.47340  0.08964  0.47340  Biso   1.000  C
  C10      1.0000 0.47340  0.96356  0.47340  Biso   1.000  C
  C11      1.0000 0.96356  0.47340  0.08964  Biso   1.000  C
  C12      1.0000 0.08964  0.47340  0.96356  Biso   1.000  C
  C13      1.0000 0.52660  0.52660  0.03644  Biso   1.000  C
  C14      1.0000 0.52660  0.52660  0.91036  Biso   1.000  C
  C15      1.0000 0.91036  0.03644  0.52660  Biso   1.000  C
  C16      1.0000 0.03644  0.91036  0.52660  Biso   1.000  C
  C17      1.0000 0.03644  0.52660  0.91036  Biso   1.000  C
  C18      1.0000 0.91036  0.52660  0.03644  Biso   1.000  C
  C19      1.0000 0.52660  0.03644  0.52660  Biso   1.000  C
  C20      1.0000 0.52660  0.91036  0.52660  Biso   1.000  C
  C21      1.0000 0.91036  0.52660  0.52660  Biso   1.000  C
  C22      1.0000 0.03644  0.52660  0.52660  Biso   1.000  C
  C23      1.0000 0.52660  0.03644  0.91036  Biso   1.000  C
  C24      1.0000 0.52660  0.91036  0.03644  Biso   1.000  C
  C25      1.0000 0.38850  0.38850  0.11150  Biso   1.000  C
  C26      1.0000 0.44610  0.44610  0.05390  Biso   1.000  C
  C27      1.0000 0.11150  0.11150  0.38850  Biso   1.000  C
  C28      1.0000 0.05390  0.05390  0.44610  Biso   1.000  C
  C29      1.0000 0.38850  0.11150  0.11150  Biso   1.000  C
  C30      1.0000 0.44610  0.05390  0.05390  Biso   1.000  C
  C31      1.0000 0.11150  0.38850  0.38850  Biso   1.000  C
  C32      1.0000 0.05390  0.44610  0.44610  Biso   1.000  C
  C33      1.0000 0.38850  0.11150  0.38850  Biso   1.000  C
  C34      1.0000 0.44610  0.05390  0.44610  Biso   1.000  C
  C35      1.0000 0.11150  0.38850  0.11150  Biso   1.000  C
  C36      1.0000 0.05390  0.44610  0.05390  Biso   1.000  C
  C37      1.0000 0.61150  0.61150  0.88850  Biso   1.000  C
  C38      1.0000 0.55390  0.55390  0.94610  Biso   1.000  C
  C39      1.0000 0.88850  0.88850  0.61150  Biso   1.000  C
  C40      1.0000 0.94610  0.94610  0.55390  Biso   1.000  C
  C41      1.0000 0.88850  0.61150  0.88850  Biso   1.000  C
  C42      1.0000 0.94610  0.55390  0.94610  Biso   1.000  C
  C43      1.0000 0.61150  0.88850  0.61150  Biso   1.000  C
  C44      1.0000 0.55390  0.94610  0.55390  Biso   1.000  C
  C45      1.0000 0.88850  0.61150  0.61150  Biso   1.000  C
  C46      1.0000 0.94610  0.55390  0.55390  Biso   1.000  C
  C47      1.0000 0.61150  0.88850  0.88850  Biso   1.000  C
  C48      1.0000 0.55390  0.94610  0.94610  Biso   1.000  C
  O1       1.0000 0.25000  0.25000  0.25000  Biso   1.000  O
  O2       1.0000 0.75000  0.75000  0.75000  Biso   1.000  O
  O3       1.0000 0.36610  0.36610  0.07322  Biso   1.000  O
  O4       1.0000 0.36610  0.36610  0.19458  Biso   1.000  O
  O5       1.0000 0.07322  0.19458  0.36610  Biso   1.000  O
  O6       1.0000 0.19458  0.07322  0.36610  Biso   1.000  O
  O7       1.0000 0.36610  0.07322  0.19458  Biso   1.000  O
  O8       1.0000 0.36610  0.19458  0.07322  Biso   1.000  O
  O9       1.0000 0.07322  0.36610  0.36610  Biso   1.000  O
  O10      1.0000 0.19458  0.36610  0.36610  Biso   1.000  O
  O11      1.0000 0.36610  0.19458  0.36610  Biso   1.000  O
  O12      1.0000 0.36610  0.07322  0.36610  Biso   1.000  O
  O13      1.0000 0.07322  0.36610  0.19458  Biso   1.000  O
  O14      1.0000 0.19458  0.36610  0.07322  Biso   1.000  O
  O15      1.0000 0.63390  0.63390  0.92678  Biso   1.000  O
  O16      1.0000 0.63390  0.63390  0.80542  Biso   1.000  O
  O17      1.0000 0.80542  0.92678  0.63390  Biso   1.000  O
  O18      1.0000 0.92678  0.80542  0.63390  Biso   1.000  O
  O19      1.0000 0.92678  0.63390  0.80542  Biso   1.000  O
  O20      1.0000 0.80542  0.63390  0.92678  Biso   1.000  O
  O21      1.0000 0.63390  0.92678  0.63390  Biso   1.000  O
  O22      1.0000 0.63390  0.80542  0.63390  Biso   1.000  O
  O23      1.0000 0.80542  0.63390  0.63390  Biso   1.000  O
  O24      1.0000 0.92678  0.63390  0.63390  Biso   1.000  O
  O25      1.0000 0.63390  0.92678  0.80542  Biso   1.000  O
  O26      1.0000 0.63390  0.80542  0.92678  Biso   1.000  O
  Zn9      1.0000 0.89689  0.75595  0.43324  Biso   1.000  Zn
  Zn10     1.0000 0.07201  0.75596  0.25812  Biso   1.000  Zn
  Zn11     1.0000 0.89689  0.75595  0.25813  Biso   1.000  Zn
  Zn12     1.0000 0.89690  0.93106  0.25812  Biso   1.000  Zn
  Zn13     1.0000 0.49661  0.33945  0.66652  Biso   1.000  Zn
  Zn14     1.0000 0.32149  0.33945  0.84163  Biso   1.000  Zn
  Zn15     1.0000 0.49661  0.16434  0.84163  Biso   1.000  Zn
  Zn16     1.0000 0.49661  0.33946  0.84163  Biso   1.000  Zn
  H25      1.0000 0.04445  0.59297  0.61166  Biso   1.000  H
  H26      1.0000 0.25853  0.59297  0.39757  Biso   1.000  H
  H27      1.0000 0.74201  0.89540  0.09514  Biso   1.000  H
  H28      1.0000 0.74201  0.10948  0.09514  Biso   1.000  H
  H29      1.0000 0.74201  0.10948  0.39757  Biso   1.000  H
  H30      1.0000 0.74201  0.89540  0.61166  Biso   1.000  H
  H31      1.0000 0.04445  0.59297  0.09514  Biso   1.000  H
  H32      1.0000 0.25853  0.59297  0.09514  Biso   1.000  H
  H33      1.0000 0.25853  0.89540  0.09514  Biso   1.000  H
  H34      1.0000 0.04445  0.10948  0.09514  Biso   1.000  H
  H35      1.0000 0.74201  0.59297  0.39757  Biso   1.000  H
  H36      1.0000 0.74201  0.59297  0.61166  Biso   1.000  H
  H37      1.0000 0.34906  0.50244  0.48810  Biso   1.000  H
  H38      1.0000 0.13497  0.50244  0.70218  Biso   1.000  H
  H39      1.0000 0.65149  0.98592  0.00461  Biso   1.000  H
  H40      1.0000 0.65149  0.20001  0.00461  Biso   1.000  H
  H41      1.0000 0.65149  0.50244  0.70218  Biso   1.000  H
  H42      1.0000 0.65149  0.50244  0.48810  Biso   1.000  H
  H43      1.0000 0.34906  0.98592  0.00461  Biso   1.000  H
  H44      1.0000 0.13497  0.20001  0.00461  Biso   1.000  H
  H45      1.0000 0.13497  0.50244  0.00461  Biso   1.000  H
  H46      1.0000 0.34906  0.50244  0.00461  Biso   1.000  H
  H47      1.0000 0.65149  0.98592  0.70218  Biso   1.000  H
  H48      1.0000 0.65149  0.20001  0.48810  Biso   1.000  H
  C49      1.0000 0.10830  0.57458  0.58458  Biso   1.000  C
  C50      1.0000 0.23145  0.57458  0.46143  Biso   1.000  C
  C51      1.0000 0.72363  0.95925  0.07675  Biso   1.000  C
  C52      1.0000 0.72363  0.08240  0.07675  Biso   1.000  C
  C53      1.0000 0.72363  0.08240  0.46143  Biso   1.000  C
  C54      1.0000 0.72363  0.95925  0.58458  Biso   1.000  C
  C55      1.0000 0.10830  0.57458  0.07675  Biso   1.000  C
  C56      1.0000 0.23145  0.57458  0.07675  Biso   1.000  C
  C57      1.0000 0.23145  0.95925  0.07675  Biso   1.000  C
  C58      1.0000 0.10830  0.08240  0.07675  Biso   1.000  C
  C59      1.0000 0.72363  0.57458  0.46143  Biso   1.000  C
  C60      1.0000 0.72363  0.57458  0.58458  Biso   1.000  C
  C61      1.0000 0.28520  0.52083  0.51518  Biso   1.000  C
  C62      1.0000 0.16205  0.52083  0.63833  Biso   1.000  C
  C63      1.0000 0.66988  0.01300  0.02300  Biso   1.000  C
  C64      1.0000 0.66987  0.13615  0.02300  Biso   1.000  C
  C65      1.0000 0.66987  0.52083  0.63833  Biso   1.000  C
  C66      1.0000 0.66988  0.52083  0.51518  Biso   1.000  C
  C67      1.0000 0.28520  0.01300  0.02300  Biso   1.000  C
  C68      1.0000 0.16205  0.13615  0.02300  Biso   1.000  C
  C69      1.0000 0.16205  0.52083  0.02300  Biso   1.000  C
  C70      1.0000 0.28520  0.52083  0.02300  Biso   1.000  C
  C71      1.0000 0.66988  0.01300  0.63833  Biso   1.000  C
  C72      1.0000 0.66988  0.13615  0.51518  Biso   1.000  C
  C73      1.0000 0.08023  0.66018  0.44146  Biso   1.000  C
  C74      1.0000 0.13869  0.60172  0.49992  Biso   1.000  C
  C75      1.0000 0.80112  0.93928  0.16235  Biso   1.000  C
  C76      1.0000 0.74266  0.99774  0.10389  Biso   1.000  C
  C77      1.0000 0.80112  0.93928  0.44146  Biso   1.000  C
  C78      1.0000 0.74266  0.99774  0.49992  Biso   1.000  C
  C79      1.0000 0.08023  0.66018  0.16235  Biso   1.000  C
  C80      1.0000 0.13869  0.60172  0.10389  Biso   1.000  C
  C81      1.0000 0.08023  0.93928  0.16235  Biso   1.000  C
  C82      1.0000 0.13869  0.99774  0.10389  Biso   1.000  C
  C83      1.0000 0.80112  0.66018  0.44146  Biso   1.000  C
  C84      1.0000 0.74266  0.60172  0.49992  Biso   1.000  C
  C85      1.0000 0.31328  0.43523  0.65830  Biso   1.000  C
  C86      1.0000 0.25482  0.49369  0.59984  Biso   1.000  C
  C87      1.0000 0.59238  0.15612  0.93740  Biso   1.000  C
  C88      1.0000 0.65084  0.09766  0.99586  Biso   1.000  C
  C89      1.0000 0.59238  0.43523  0.65830  Biso   1.000  C
  C90      1.0000 0.65084  0.49369  0.59984  Biso   1.000  C
  C91      1.0000 0.31328  0.15612  0.93740  Biso   1.000  C
  C92      1.0000 0.25482  0.09766  0.99586  Biso   1.000  C
  C93      1.0000 0.31328  0.43523  0.93740  Biso   1.000  C
  C94      1.0000 0.25482  0.49369  0.99586  Biso   1.000  C
  C95      1.0000 0.59238  0.15612  0.65830  Biso   1.000  C
  C96      1.0000 0.65084  0.09766  0.59984  Biso   1.000  C
  O27      1.0000 0.94067  0.79973  0.30190  Biso   1.000  O
  O28      1.0000 0.45283  0.29568  0.79785  Biso   1.000  O
  O29      1.0000 0.99625  0.68270  0.48039  Biso   1.000  O
  O30      1.0000 0.11916  0.68270  0.35748  Biso   1.000  O
  O31      1.0000 0.82364  0.85530  0.18487  Biso   1.000  O
  O32      1.0000 0.82364  0.97821  0.18487  Biso   1.000  O
  O33      1.0000 0.82364  0.97821  0.35748  Biso   1.000  O
  O34      1.0000 0.82364  0.85530  0.48039  Biso   1.000  O
  O35      1.0000 0.99625  0.68270  0.18487  Biso   1.000  O
  O36      1.0000 0.11916  0.68270  0.18487  Biso   1.000  O
  O37      1.0000 0.11916  0.85530  0.18487  Biso   1.000  O
  O38      1.0000 0.99625  0.97821  0.18487  Biso   1.000  O
  O39      1.0000 0.82364  0.68270  0.35748  Biso   1.000  O
  O40      1.0000 0.82364  0.68270  0.48039  Biso   1.000  O
  O41      1.0000 0.39725  0.41271  0.61937  Biso   1.000  O
  O42      1.0000 0.27434  0.41271  0.74228  Biso   1.000  O
  O43      1.0000 0.56986  0.11719  0.91488  Biso   1.000  O
  O44      1.0000 0.56986  0.24010  0.91488  Biso   1.000  O
  O45      1.0000 0.56986  0.41271  0.74228  Biso   1.000  O
  O46      1.0000 0.56986  0.41271  0.61937  Biso   1.000  O
  O47      1.0000 0.39725  0.11719  0.91488  Biso   1.000  O
  O48      1.0000 0.27434  0.24010  0.91488  Biso   1.000  O
  O49      1.0000 0.27434  0.41271  0.91488  Biso   1.000  O
  O50      1.0000 0.39725  0.41271  0.91488  Biso   1.000  O
  O51      1.0000 0.56986  0.11719  0.74228  Biso   1.000  O
  O52      1.0000 0.56986  0.24010  0.61937  Biso   1.000  O
