data_image0
_cell_length_a       18.2888
_cell_length_b       18.2888
_cell_length_c       18.2888
_cell_angle_alpha    60
_cell_angle_beta     60
_cell_angle_gamma    60

_symmetry_space_group_name_H-M    "P 1"
_symmetry_int_tables_number       1

loop_
  _symmetry_equiv_pos_as_xyz
  'x, y, z'

loop_
  _atom_site_label
  _atom_site_occupancy
  _atom_site_fract_x
  _atom_site_fract_y
  _atom_site_fract_z
  _atom_site_thermal_displace_type
  _atom_site_B_iso_or_equiv
  _atom_site_type_symbol
  C1       1.0000 0.29344  0.29345  0.11966  Biso   1.000  C
  C2       1.0000 0.29344  0.29345  0.29345  Biso   1.000  C
  C3       1.0000 0.11965  0.29345  0.29345  Biso   1.000  C
  C4       1.0000 0.29344  0.11966  0.29345  Biso   1.000  C
  C5       1.0000 0.70655  0.70656  0.88034  Biso   1.000  C
  C6       1.0000 0.70656  0.70655  0.70655  Biso   1.000  C
  C7       1.0000 0.70655  0.88034  0.70656  Biso   1.000  C
  C8       1.0000 0.88035  0.70655  0.70655  Biso   1.000  C
  C9       1.0000 0.45490  0.45490  0.93490  Biso   1.000  C
  C10      1.0000 0.45490  0.45490  0.15530  Biso   1.000  C
  C11      1.0000 0.93490  0.15530  0.45490  Biso   1.000  C
  C12      1.0000 0.15530  0.93490  0.45490  Biso   1.000  C
  C13      1.0000 0.45490  0.93490  0.15530  Biso   1.000  C
  C14      1.0000 0.45490  0.15530  0.93490  Biso   1.000  C
  C15      1.0000 0.93490  0.45490  0.45490  Biso   1.000  C
  C16      1.0000 0.15530  0.45490  0.45490  Biso   1.000  C
  C17      1.0000 0.45490  0.15530  0.45490  Biso   1.000  C
  C18      1.0000 0.45490  0.93490  0.45490  Biso   1.000  C
  C19      1.0000 0.93490  0.45490  0.15530  Biso   1.000  C
  C20      1.0000 0.15530  0.45490  0.93490  Biso   1.000  C
  C21      1.0000 0.54510  0.54510  0.06510  Biso   1.000  C
  C22      1.0000 0.54510  0.54510  0.84470  Biso   1.000  C
  C23      1.0000 0.84470  0.06510  0.54510  Biso   1.000  C
  C24      1.0000 0.06510  0.84470  0.54510  Biso   1.000  C
  C25      1.0000 0.06510  0.54510  0.84470  Biso   1.000  C
  C26      1.0000 0.84470  0.54510  0.06510  Biso   1.000  C
  C27      1.0000 0.54510  0.06510  0.54510  Biso   1.000  C
  C28      1.0000 0.54510  0.84470  0.54510  Biso   1.000  C
  C29      1.0000 0.84470  0.54510  0.54510  Biso   1.000  C
  C30      1.0000 0.06510  0.54510  0.54510  Biso   1.000  C
  C31      1.0000 0.54510  0.06510  0.84470  Biso   1.000  C
  C32      1.0000 0.54510  0.84470  0.06510  Biso   1.000  C
  C33      1.0000 0.47314  0.47314  0.96174  Biso   1.000  C
  C34      1.0000 0.47314  0.47314  0.09198  Biso   1.000  C
  C35      1.0000 0.96174  0.09198  0.47314  Biso   1.000  C
  C36      1.0000 0.09198  0.96174  0.47314  Biso   1.000  C
  C37      1.0000 0.47314  0.96174  0.09198  Biso   1.000  C
  C38      1.0000 0.47314  0.09198  0.96174  Biso   1.000  C
  C39      1.0000 0.96174  0.47314  0.47314  Biso   1.000  C
  C40      1.0000 0.09198  0.47314  0.47314  Biso   1.000  C
  C41      1.0000 0.47314  0.09198  0.47314  Biso   1.000  C
  C42      1.0000 0.47314  0.96174  0.47314  Biso   1.000  C
  C43      1.0000 0.96174  0.47314  0.09198  Biso   1.000  C
  C44      1.0000 0.09198  0.47314  0.96174  Biso   1.000  C
  C45      1.0000 0.52686  0.52686  0.03826  Biso   1.000  C
  C46      1.0000 0.52686  0.52686  0.90802  Biso   1.000  C
  C47      1.0000 0.90802  0.03826  0.52686  Biso   1.000  C
  C48      1.0000 0.03826  0.90802  0.52686  Biso   1.000  C
  C49      1.0000 0.03826  0.52686  0.90802  Biso   1.000  C
  C50      1.0000 0.90802  0.52686  0.03826  Biso   1.000  C
  C51      1.0000 0.52686  0.03826  0.52686  Biso   1.000  C
  C52      1.0000 0.52686  0.90802  0.52686  Biso   1.000  C
  C53      1.0000 0.90802  0.52686  0.52686  Biso   1.000  C
  C54      1.0000 0.03826  0.52686  0.52686  Biso   1.000  C
  C55      1.0000 0.52686  0.03826  0.90802  Biso   1.000  C
  C56      1.0000 0.52686  0.90802  0.03826  Biso   1.000  C
  C57      1.0000 0.38849  0.38849  0.11151  Biso   1.000  C
  C58      1.0000 0.44624  0.44624  0.05376  Biso   1.000  C
  C59      1.0000 0.11151  0.11151  0.38849  Biso   1.000  C
  C60      1.0000 0.05376  0.05376  0.44624  Biso   1.000  C
  C61      1.0000 0.38849  0.11151  0.11151  Biso   1.000  C
  C62      1.0000 0.44624  0.05376  0.05376  Biso   1.000  C
  C63      1.0000 0.11151  0.38849  0.38849  Biso   1.000  C
  C64      1.0000 0.05376  0.44624  0.44624  Biso   1.000  C
  C65      1.0000 0.38849  0.11151  0.38849  Biso   1.000  C
  C66      1.0000 0.44624  0.05376  0.44624  Biso   1.000  C
  C67      1.0000 0.11151  0.38849  0.11151  Biso   1.000  C
  C68      1.0000 0.05376  0.44624  0.05376  Biso   1.000  C
  C69      1.0000 0.61151  0.61151  0.88849  Biso   1.000  C
  C70      1.0000 0.55376  0.55376  0.94624  Biso   1.000  C
  C71      1.0000 0.88849  0.88849  0.61151  Biso   1.000  C
  C72      1.0000 0.94624  0.94624  0.55376  Biso   1.000  C
  C73      1.0000 0.88849  0.61151  0.88849  Biso   1.000  C
  C74      1.0000 0.94624  0.55376  0.94624  Biso   1.000  C
  C75      1.0000 0.61151  0.88849  0.61151  Biso   1.000  C
  C76      1.0000 0.55376  0.94624  0.55376  Biso   1.000  C
  C77      1.0000 0.88849  0.61151  0.61151  Biso   1.000  C
  C78      1.0000 0.94624  0.55376  0.55376  Biso   1.000  C
  C79      1.0000 0.61151  0.88849  0.88849  Biso   1.000  C
  C80      1.0000 0.55376  0.94624  0.94624  Biso   1.000  C
  C81      1.0000 0.25000  0.25000  0.25000  Biso   1.000  C
  C82      1.0000 0.75000  0.75000  0.75000  Biso   1.000  C
  C83      1.0000 0.36620  0.36620  0.07286  Biso   1.000  C
  C84      1.0000 0.36620  0.36620  0.19474  Biso   1.000  C
  C85      1.0000 0.07286  0.19474  0.36620  Biso   1.000  C
  C86      1.0000 0.19474  0.07286  0.36620  Biso   1.000  C
  C87      1.0000 0.36620  0.07286  0.19474  Biso   1.000  C
  C88      1.0000 0.36620  0.19474  0.07286  Biso   1.000  C
  C89      1.0000 0.07286  0.36620  0.36620  Biso   1.000  C
  C90      1.0000 0.19474  0.36620  0.36620  Biso   1.000  C
  C91      1.0000 0.36620  0.19474  0.36620  Biso   1.000  C
  C92      1.0000 0.36620  0.07286  0.36620  Biso   1.000  C
  C93      1.0000 0.07286  0.36620  0.19474  Biso   1.000  C
  C94      1.0000 0.19474  0.36620  0.07286  Biso   1.000  C
  C95      1.0000 0.63380  0.63380  0.92714  Biso   1.000  C
  C96      1.0000 0.63380  0.63380  0.80526  Biso   1.000  C
  C97      1.0000 0.80526  0.92714  0.63380  Biso   1.000  C
  C98      1.0000 0.92714  0.80526  0.63380  Biso   1.000  C
  C99      1.0000 0.92714  0.63380  0.80526  Biso   1.000  C
  C100     1.0000 0.80526  0.63380  0.92714  Biso   1.000  C
  C101     1.0000 0.63380  0.92714  0.63380  Biso   1.000  C
  C102     1.0000 0.63380  0.80526  0.63380  Biso   1.000  C
  C103     1.0000 0.80526  0.63380  0.63380  Biso   1.000  C
  C104     1.0000 0.92714  0.63380  0.63380  Biso   1.000  C
  C105     1.0000 0.63380  0.92714  0.80526  Biso   1.000  C
  C106     1.0000 0.63380  0.80526  0.92714  Biso   1.000  C
  O1       1.0000 0.07259  0.59300  0.58913  Biso   1.000  O
  O2       1.0000 0.48717  0.17829  0.00391  Biso   1.000  O
  O3       1.0000 0.48717  0.00412  0.00391  Biso   1.000  O
  O4       1.0000 0.07259  0.41883  0.58913  Biso   1.000  O
  O5       1.0000 0.07213  0.59333  0.41473  Biso   1.000  O
  O6       1.0000 0.89803  0.59315  0.58923  Biso   1.000  O
  O7       1.0000 0.48763  0.00379  0.17832  Biso   1.000  O
  O8       1.0000 0.66173  0.00398  0.00381  Biso   1.000  O
  O9       1.0000 0.23911  0.23586  0.44613  Biso   1.000  O
  O10      1.0000 0.22873  0.45387  0.23526  Biso   1.000  O
  O11      1.0000 0.93647  0.23694  0.74865  Biso   1.000  O
  O12      1.0000 0.71576  0.45136  0.75094  Biso   1.000  O
  O13      1.0000 0.23992  0.45335  0.74616  Biso   1.000  O
  O14      1.0000 0.32065  0.84468  0.14691  Biso   1.000  O
  O15      1.0000 0.33103  0.84148  0.35778  Biso   1.000  O
  O16      1.0000 0.62329  0.84559  0.84440  Biso   1.000  O
  O17      1.0000 0.84399  0.84161  0.84211  Biso   1.000  O
  O18      1.0000 0.31983  0.36297  0.84689  Biso   1.000  O
  O19      1.0000 0.32064  0.36126  0.14691  Biso   1.000  O
  O20      1.0000 0.33103  0.14325  0.35778  Biso   1.000  O
  O21      1.0000 0.62328  0.36018  0.84440  Biso   1.000  O
  O22      1.0000 0.84399  0.14576  0.84211  Biso   1.000  O
  O23      1.0000 0.31984  0.14377  0.84689  Biso   1.000  O
  O24      1.0000 0.23911  0.75244  0.44613  Biso   1.000  O
  O25      1.0000 0.22873  0.75564  0.23526  Biso   1.000  O
  O26      1.0000 0.93647  0.75153  0.74865  Biso   1.000  O
  O27      1.0000 0.71577  0.75551  0.75094  Biso   1.000  O
  O28      1.0000 0.23993  0.23416  0.74616  Biso   1.000  O
  O29      1.0000 0.71665  0.75433  0.44823  Biso   1.000  O
  O30      1.0000 0.92966  0.75544  0.23297  Biso   1.000  O
  O31      1.0000 0.84311  0.84279  0.14482  Biso   1.000  O
  O32      1.0000 0.63010  0.84168  0.36007  Biso   1.000  O
  O33      1.0000 0.16649  0.41034  0.40988  Biso   1.000  O
  O34      1.0000 0.22584  0.35248  0.34892  Biso   1.000  O
  O35      1.0000 0.25684  0.26146  0.38418  Biso   1.000  O
  O36      1.0000 0.24805  0.39202  0.26116  Biso   1.000  O
  O37      1.0000 0.88855  0.41351  0.68589  Biso   1.000  O
  O38      1.0000 0.83467  0.35525  0.74098  Biso   1.000  O
  O39      1.0000 0.87453  0.26304  0.76658  Biso   1.000  O
  O40      1.0000 0.74335  0.38961  0.76837  Biso   1.000  O
  O41      1.0000 0.25576  0.39150  0.76618  Biso   1.000  O
  O42      1.0000 0.39327  0.91031  0.18317  Biso   1.000  O
  O43      1.0000 0.33391  0.85085  0.24413  Biso   1.000  O
  O44      1.0000 0.30292  0.82605  0.20887  Biso   1.000  O
  O45      1.0000 0.31171  0.82485  0.33188  Biso   1.000  O
  O46      1.0000 0.67121  0.91152  0.90715  Biso   1.000  O
  O47      1.0000 0.72508  0.85446  0.85207  Biso   1.000  O
  O48      1.0000 0.68523  0.82767  0.82647  Biso   1.000  O
  O49      1.0000 0.81641  0.82488  0.82468  Biso   1.000  O
  O50      1.0000 0.30400  0.33697  0.82687  Biso   1.000  O
  O51      1.0000 0.39327  0.18678  0.18317  Biso   1.000  O
  O52      1.0000 0.33391  0.24464  0.24413  Biso   1.000  O
  O53      1.0000 0.30292  0.33566  0.20887  Biso   1.000  O
  O54      1.0000 0.31171  0.20510  0.33188  Biso   1.000  O
  O55      1.0000 0.67121  0.18361  0.90715  Biso   1.000  O
  O56      1.0000 0.72508  0.24187  0.85207  Biso   1.000  O
  O57      1.0000 0.68523  0.33408  0.82647  Biso   1.000  O
  O58      1.0000 0.81641  0.20751  0.82468  Biso   1.000  O
  O59      1.0000 0.30400  0.20562  0.82687  Biso   1.000  O
  O60      1.0000 0.16649  0.68681  0.40988  Biso   1.000  O
  O61      1.0000 0.22585  0.74627  0.34892  Biso   1.000  O
  O62      1.0000 0.25684  0.77107  0.38418  Biso   1.000  O
  O63      1.0000 0.24805  0.77227  0.26116  Biso   1.000  O
  O64      1.0000 0.88855  0.68560  0.68589  Biso   1.000  O
  O65      1.0000 0.83468  0.74267  0.74098  Biso   1.000  O
  O66      1.0000 0.87453  0.76945  0.76658  Biso   1.000  O
  O67      1.0000 0.74335  0.77224  0.76837  Biso   1.000  O
  O68      1.0000 0.25576  0.26015  0.76618  Biso   1.000  O
  O69      1.0000 0.89521  0.68761  0.40310  Biso   1.000  O
  O70      1.0000 0.83326  0.74458  0.35111  Biso   1.000  O
  O71      1.0000 0.74373  0.77167  0.38647  Biso   1.000  O
  O72      1.0000 0.86782  0.77287  0.25997  Biso   1.000  O
  O73      1.0000 0.16501  0.41531  0.67792  Biso   1.000  O
  O74      1.0000 0.22477  0.35386  0.74108  Biso   1.000  O
  O75      1.0000 0.66455  0.90951  0.18994  Biso   1.000  O
  O76      1.0000 0.72650  0.85254  0.24194  Biso   1.000  O
  O77      1.0000 0.81603  0.82546  0.20658  Biso   1.000  O
  O78      1.0000 0.69194  0.82425  0.33308  Biso   1.000  O
  O79      1.0000 0.39475  0.18181  0.91512  Biso   1.000  O
  O80      1.0000 0.33499  0.24326  0.85197  Biso   1.000  O
  O81      1.0000 0.14647  0.49540  0.36416  Biso   1.000  O
  O82      1.0000 0.14777  0.36662  0.49375  Biso   1.000  O
  O83      1.0000 0.84881  0.49638  0.65950  Biso   1.000  O
  O84      1.0000 0.97449  0.36960  0.66348  Biso   1.000  O
  O85      1.0000 0.14599  0.49737  0.66069  Biso   1.000  O
  O86      1.0000 0.41328  0.92963  0.22889  Biso   1.000  O
  O87      1.0000 0.41198  0.93173  0.09930  Biso   1.000  O
  O88      1.0000 0.71095  0.92825  0.93355  Biso   1.000  O
  O89      1.0000 0.58526  0.93114  0.92956  Biso   1.000  O
  O90      1.0000 0.41377  0.22762  0.93235  Biso   1.000  O
  O91      1.0000 0.41329  0.10172  0.22889  Biso   1.000  O
  O92      1.0000 0.41199  0.23050  0.09930  Biso   1.000  O
  O93      1.0000 0.71095  0.10074  0.93355  Biso   1.000  O
  O94      1.0000 0.58526  0.22753  0.92956  Biso   1.000  O
  O95      1.0000 0.41377  0.09975  0.93235  Biso   1.000  O
  O96      1.0000 0.14647  0.66749  0.36416  Biso   1.000  O
  O97      1.0000 0.14777  0.66539  0.49375  Biso   1.000  O
  O98      1.0000 0.84881  0.66887  0.65950  Biso   1.000  O
  O99      1.0000 0.97450  0.66598  0.66348  Biso   1.000  O
  O100     1.0000 0.14599  0.36950  0.66069  Biso   1.000  O
  O101     1.0000 0.02956  0.54937  0.54525  Biso   1.000  O
  O102     1.0000 0.97568  0.66650  0.36485  Biso   1.000  O
  O103     1.0000 0.85020  0.66878  0.48578  Biso   1.000  O
  O104     1.0000 0.53020  0.04775  0.04780  Biso   1.000  O
  O105     1.0000 0.58408  0.93062  0.22819  Biso   1.000  O
  O106     1.0000 0.70956  0.92834  0.10727  Biso   1.000  O
