data_image0
_cell_length_a       18.2662
_cell_length_b       18.2662
_cell_length_c       18.2662
_cell_angle_alpha    60
_cell_angle_beta     60
_cell_angle_gamma    60

_symmetry_space_group_name_H-M    "P 1"
_symmetry_int_tables_number       1

loop_
  _symmetry_equiv_pos_as_xyz
  'x, y, z'

loop_
  _atom_site_label
  _atom_site_occupancy
  _atom_site_fract_x
  _atom_site_fract_y
  _atom_site_fract_z
  _atom_site_thermal_displace_type
  _atom_site_B_iso_or_equiv
  _atom_site_type_symbol
  Zn1      1.0000 0.29353  0.29352  0.11943  Biso   1.000  Zn
  Zn2      1.0000 0.29353  0.29352  0.29352  Biso   1.000  Zn
  Zn3      1.0000 0.11944  0.29352  0.29352  Biso   1.000  Zn
  Zn4      1.0000 0.29353  0.11943  0.29352  Biso   1.000  Zn
  Zn5      1.0000 0.70647  0.70648  0.88057  Biso   1.000  Zn
  Zn6      1.0000 0.70647  0.70648  0.70648  Biso   1.000  Zn
  Zn7      1.0000 0.70647  0.88057  0.70648  Biso   1.000  Zn
  Zn8      1.0000 0.88056  0.70648  0.70648  Biso   1.000  Zn
  H1       1.0000 0.45570  0.45570  0.93590  Biso   1.000  H
  H2       1.0000 0.45570  0.45570  0.15270  Biso   1.000  H
  H3       1.0000 0.93590  0.15270  0.45570  Biso   1.000  H
  H4       1.0000 0.15270  0.93590  0.45570  Biso   1.000  H
  H5       1.0000 0.45570  0.93590  0.15270  Biso   1.000  H
  H6       1.0000 0.45570  0.15270  0.93590  Biso   1.000  H
  H7       1.0000 0.93590  0.45570  0.45570  Biso   1.000  H
  H8       1.0000 0.15270  0.45570  0.45570  Biso   1.000  H
  H9       1.0000 0.45570  0.15270  0.45570  Biso   1.000  H
  H10      1.0000 0.45570  0.93590  0.45570  Biso   1.000  H
  H11      1.0000 0.93590  0.45570  0.15270  Biso   1.000  H
  H12      1.0000 0.15270  0.45570  0.93590  Biso   1.000  H
  H13      1.0000 0.54430  0.54430  0.06410  Biso   1.000  H
  H14      1.0000 0.54430  0.54430  0.84730  Biso   1.000  H
  H15      1.0000 0.84730  0.06410  0.54430  Biso   1.000  H
  H16      1.0000 0.06410  0.84730  0.54430  Biso   1.000  H
  H17      1.0000 0.06410  0.54430  0.84730  Biso   1.000  H
  H18      1.0000 0.84730  0.54430  0.06410  Biso   1.000  H
  H19      1.0000 0.54430  0.06410  0.54430  Biso   1.000  H
  H20      1.0000 0.54430  0.84730  0.54430  Biso   1.000  H
  H21      1.0000 0.84730  0.54430  0.54430  Biso   1.000  H
  H22      1.0000 0.06410  0.54430  0.54430  Biso   1.000  H
  H23      1.0000 0.54430  0.06410  0.84730  Biso   1.000  H
  H24      1.0000 0.54430  0.84730  0.06410  Biso   1.000  H
  C1       1.0000 0.47342  0.47342  0.96246  Biso   1.000  C
  C2       1.0000 0.47342  0.47342  0.09070  Biso   1.000  C
  C3       1.0000 0.96246  0.09070  0.47342  Biso   1.000  C
  C4       1.0000 0.09070  0.96246  0.47342  Biso   1.000  C
  C5       1.0000 0.47342  0.96246  0.09070  Biso   1.000  C
  C6       1.0000 0.47342  0.09070  0.96246  Biso   1.000  C
  C7       1.0000 0.96246  0.47342  0.47342  Biso   1.000  C
  C8       1.0000 0.09070  0.47342  0.47342  Biso   1.000  C
  C9       1.0000 0.47342  0.09070  0.47342  Biso   1.000  C
  C10      1.0000 0.47342  0.96246  0.47342  Biso   1.000  C
  C11      1.0000 0.96246  0.47342  0.09070  Biso   1.000  C
  C12      1.0000 0.09070  0.47342  0.96246  Biso   1.000  C
  C13      1.0000 0.52658  0.52658  0.03754  Biso   1.000  C
  C14      1.0000 0.52658  0.52658  0.90930  Biso   1.000  C
  C15      1.0000 0.90930  0.03754  0.52658  Biso   1.000  C
  C16      1.0000 0.03754  0.90930  0.52658  Biso   1.000  C
  C17      1.0000 0.03754  0.52658  0.90930  Biso   1.000  C
  C18      1.0000 0.90930  0.52658  0.03754  Biso   1.000  C
  C19      1.0000 0.52658  0.03754  0.52658  Biso   1.000  C
  C20      1.0000 0.52658  0.90930  0.52658  Biso   1.000  C
  C21      1.0000 0.90930  0.52658  0.52658  Biso   1.000  C
  C22      1.0000 0.03754  0.52658  0.52658  Biso   1.000  C
  C23      1.0000 0.52658  0.03754  0.90930  Biso   1.000  C
  C24      1.0000 0.52658  0.90930  0.03754  Biso   1.000  C
  C25      1.0000 0.38858  0.38858  0.11142  Biso   1.000  C
  C26      1.0000 0.44625  0.44625  0.05375  Biso   1.000  C
  C27      1.0000 0.11142  0.11142  0.38858  Biso   1.000  C
  C28      1.0000 0.05375  0.05375  0.44625  Biso   1.000  C
  C29      1.0000 0.38858  0.11142  0.11142  Biso   1.000  C
  C30      1.0000 0.44625  0.05375  0.05375  Biso   1.000  C
  C31      1.0000 0.11142  0.38858  0.38858  Biso   1.000  C
  C32      1.0000 0.05375  0.44625  0.44625  Biso   1.000  C
  C33      1.0000 0.38858  0.11142  0.38858  Biso   1.000  C
  C34      1.0000 0.44625  0.05375  0.44625  Biso   1.000  C
  C35      1.0000 0.11142  0.38858  0.11142  Biso   1.000  C
  C36      1.0000 0.05375  0.44625  0.05375  Biso   1.000  C
  C37      1.0000 0.61142  0.61142  0.88858  Biso   1.000  C
  C38      1.0000 0.55375  0.55375  0.94625  Biso   1.000  C
  C39      1.0000 0.88858  0.88858  0.61142  Biso   1.000  C
  C40      1.0000 0.94625  0.94625  0.55375  Biso   1.000  C
  C41      1.0000 0.88858  0.61142  0.88858  Biso   1.000  C
  C42      1.0000 0.94625  0.55375  0.94625  Biso   1.000  C
  C43      1.0000 0.61142  0.88858  0.61142  Biso   1.000  C
  C44      1.0000 0.55375  0.94625  0.55375  Biso   1.000  C
  C45      1.0000 0.88858  0.61142  0.61142  Biso   1.000  C
  C46      1.0000 0.94625  0.55375  0.55375  Biso   1.000  C
  C47      1.0000 0.61142  0.88858  0.88858  Biso   1.000  C
  C48      1.0000 0.55375  0.94625  0.94625  Biso   1.000  C
  O1       1.0000 0.25000  0.25000  0.25000  Biso   1.000  O
  O2       1.0000 0.75000  0.75000  0.75000  Biso   1.000  O
  O3       1.0000 0.36617  0.36617  0.07287  Biso   1.000  O
  O4       1.0000 0.36617  0.36617  0.19479  Biso   1.000  O
  O5       1.0000 0.07287  0.19479  0.36617  Biso   1.000  O
  O6       1.0000 0.19479  0.07287  0.36617  Biso   1.000  O
  O7       1.0000 0.36617  0.07287  0.19479  Biso   1.000  O
  O8       1.0000 0.36617  0.19479  0.07287  Biso   1.000  O
  O9       1.0000 0.07287  0.36617  0.36617  Biso   1.000  O
  O10      1.0000 0.19479  0.36617  0.36617  Biso   1.000  O
  O11      1.0000 0.36617  0.19479  0.36617  Biso   1.000  O
  O12      1.0000 0.36617  0.07287  0.36617  Biso   1.000  O
  O13      1.0000 0.07287  0.36617  0.19479  Biso   1.000  O
  O14      1.0000 0.19479  0.36617  0.07287  Biso   1.000  O
  O15      1.0000 0.63383  0.63383  0.92713  Biso   1.000  O
  O16      1.0000 0.63383  0.63383  0.80521  Biso   1.000  O
  O17      1.0000 0.80521  0.92713  0.63383  Biso   1.000  O
  O18      1.0000 0.92713  0.80521  0.63383  Biso   1.000  O
  O19      1.0000 0.92713  0.63383  0.80521  Biso   1.000  O
  O20      1.0000 0.80521  0.63383  0.92713  Biso   1.000  O
  O21      1.0000 0.63383  0.92713  0.63383  Biso   1.000  O
  O22      1.0000 0.63383  0.80521  0.63383  Biso   1.000  O
  O23      1.0000 0.80521  0.63383  0.63383  Biso   1.000  O
  O24      1.0000 0.92713  0.63383  0.63383  Biso   1.000  O
  O25      1.0000 0.63383  0.92713  0.80521  Biso   1.000  O
  O26      1.0000 0.63383  0.80521  0.92713  Biso   1.000  O
  Zn9      1.0000 0.49104  0.64245  0.33298  Biso   1.000  Zn
  Zn10     1.0000 0.49104  0.64245  0.50535  Biso   1.000  Zn
  Zn11     1.0000 0.31867  0.64245  0.50535  Biso   1.000  Zn
  Zn12     1.0000 0.49104  0.47008  0.50535  Biso   1.000  Zn
  Zn13     1.0000 0.91159  0.06302  0.09829  Biso   1.000  Zn
  Zn14     1.0000 0.91159  0.06302  0.92592  Biso   1.000  Zn
  Zn15     1.0000 0.91159  0.23539  0.92592  Biso   1.000  Zn
  Zn16     1.0000 0.08396  0.06302  0.92592  Biso   1.000  Zn
  H25      1.0000 0.35511  0.80208  0.14964  Biso   1.000  H
  H26      1.0000 0.65066  0.50653  0.66498  Biso   1.000  H
  H27      1.0000 0.13532  0.80208  0.36943  Biso   1.000  H
  H28      1.0000 0.65066  0.28674  0.66498  Biso   1.000  H
  H29      1.0000 0.35511  0.28674  0.66498  Biso   1.000  H
  H30      1.0000 0.65066  0.80208  0.14964  Biso   1.000  H
  H31      1.0000 0.13532  0.50653  0.66498  Biso   1.000  H
  H32      1.0000 0.65066  0.80208  0.36943  Biso   1.000  H
  H33      1.0000 0.35511  0.80208  0.66498  Biso   1.000  H
  H34      1.0000 0.65066  0.28674  0.36943  Biso   1.000  H
  H35      1.0000 0.13532  0.80208  0.66498  Biso   1.000  H
  H36      1.0000 0.65066  0.50653  0.14964  Biso   1.000  H
  H37      1.0000 0.75197  0.19894  0.28163  Biso   1.000  H
  H38      1.0000 0.04752  0.90339  0.76629  Biso   1.000  H
  H39      1.0000 0.75197  0.41873  0.06184  Biso   1.000  H
  H40      1.0000 0.26731  0.90339  0.76629  Biso   1.000  H
  H41      1.0000 0.26731  0.19894  0.76629  Biso   1.000  H
  H42      1.0000 0.75197  0.90339  0.28163  Biso   1.000  H
  H43      1.0000 0.04752  0.41873  0.76629  Biso   1.000  H
  H44      1.0000 0.75197  0.90339  0.06184  Biso   1.000  H
  H45      1.0000 0.75197  0.19894  0.76629  Biso   1.000  H
  H46      1.0000 0.26731  0.90339  0.06184  Biso   1.000  H
  H47      1.0000 0.75197  0.41873  0.76629  Biso   1.000  H
  H48      1.0000 0.04752  0.90339  0.28163  Biso   1.000  H
  C49      1.0000 0.29218  0.82030  0.17612  Biso   1.000  C
  C50      1.0000 0.66888  0.44360  0.68320  Biso   1.000  C
  C51      1.0000 0.16180  0.82030  0.30650  Biso   1.000  C
  C52      1.0000 0.66888  0.31323  0.68320  Biso   1.000  C
  C53      1.0000 0.29218  0.31323  0.68320  Biso   1.000  C
  C54      1.0000 0.66888  0.82030  0.17612  Biso   1.000  C
  C55      1.0000 0.16180  0.44360  0.68320  Biso   1.000  C
  C56      1.0000 0.66888  0.82030  0.30650  Biso   1.000  C
  C57      1.0000 0.29218  0.82030  0.68320  Biso   1.000  C
  C58      1.0000 0.66888  0.31323  0.30650  Biso   1.000  C
  C59      1.0000 0.16180  0.82030  0.68320  Biso   1.000  C
  C60      1.0000 0.66888  0.44360  0.17612  Biso   1.000  C
  C61      1.0000 0.73375  0.26187  0.25514  Biso   1.000  C
  C62      1.0000 0.11045  0.88517  0.74807  Biso   1.000  C
  C63      1.0000 0.73375  0.39224  0.12477  Biso   1.000  C
  C64      1.0000 0.24082  0.88517  0.74807  Biso   1.000  C
  C65      1.0000 0.24082  0.26187  0.74807  Biso   1.000  C
  C66      1.0000 0.73375  0.88517  0.25514  Biso   1.000  C
  C67      1.0000 0.11045  0.39224  0.74807  Biso   1.000  C
  C68      1.0000 0.73375  0.88517  0.12477  Biso   1.000  C
  C69      1.0000 0.73375  0.26187  0.74807  Biso   1.000  C
  C70      1.0000 0.24082  0.88517  0.12477  Biso   1.000  C
  C71      1.0000 0.73375  0.39224  0.74807  Biso   1.000  C
  C72      1.0000 0.11045  0.88517  0.25514  Biso   1.000  C
  C73      1.0000 0.25379  0.79350  0.26812  Biso   1.000  C
  C74      1.0000 0.31141  0.73589  0.32573  Biso   1.000  C
  C75      1.0000 0.64208  0.40522  0.65640  Biso   1.000  C
  C76      1.0000 0.58447  0.46283  0.59879  Biso   1.000  C
  C77      1.0000 0.25379  0.40522  0.65640  Biso   1.000  C
  C78      1.0000 0.31141  0.46283  0.59879  Biso   1.000  C
  C79      1.0000 0.64208  0.79350  0.26812  Biso   1.000  C
  C80      1.0000 0.58447  0.73589  0.32573  Biso   1.000  C
  C81      1.0000 0.25379  0.79350  0.65640  Biso   1.000  C
  C82      1.0000 0.31141  0.73589  0.59879  Biso   1.000  C
  C83      1.0000 0.64208  0.40522  0.26812  Biso   1.000  C
  C84      1.0000 0.58447  0.46283  0.32573  Biso   1.000  C
  C85      1.0000 0.76055  0.30025  0.16315  Biso   1.000  C
  C86      1.0000 0.81816  0.24264  0.10554  Biso   1.000  C
  C87      1.0000 0.14883  0.91197  0.77487  Biso   1.000  C
  C88      1.0000 0.09122  0.96958  0.83248  Biso   1.000  C
  C89      1.0000 0.14883  0.30025  0.77487  Biso   1.000  C
  C90      1.0000 0.09122  0.24264  0.83248  Biso   1.000  C
  C91      1.0000 0.76055  0.91197  0.16315  Biso   1.000  C
  C92      1.0000 0.81816  0.96958  0.10554  Biso   1.000  C
  C93      1.0000 0.76055  0.30025  0.77487  Biso   1.000  C
  C94      1.0000 0.81816  0.24264  0.83248  Biso   1.000  C
  C95      1.0000 0.14883  0.91197  0.16315  Biso   1.000  C
  C96      1.0000 0.09122  0.96958  0.10554  Biso   1.000  C
  O27      1.0000 0.44794  0.59936  0.46226  Biso   1.000  O
  O28      1.0000 0.95469  0.10611  0.96901  Biso   1.000  O
  O29      1.0000 0.39673  0.71414  0.28391  Biso   1.000  O
  O30      1.0000 0.56271  0.54815  0.57703  Biso   1.000  O
  O31      1.0000 0.26959  0.71414  0.41105  Biso   1.000  O
  O32      1.0000 0.56271  0.42101  0.57703  Biso   1.000  O
  O33      1.0000 0.39673  0.42101  0.57703  Biso   1.000  O
  O34      1.0000 0.56271  0.71414  0.28391  Biso   1.000  O
  O35      1.0000 0.26959  0.54815  0.57703  Biso   1.000  O
  O36      1.0000 0.56271  0.71414  0.41105  Biso   1.000  O
  O37      1.0000 0.39673  0.71414  0.57703  Biso   1.000  O
  O38      1.0000 0.56271  0.42101  0.41105  Biso   1.000  O
  O39      1.0000 0.26959  0.71414  0.57703  Biso   1.000  O
  O40      1.0000 0.56271  0.54815  0.28391  Biso   1.000  O
  O41      1.0000 0.83991  0.15732  0.14736  Biso   1.000  O
  O42      1.0000 0.00590  0.99133  0.85423  Biso   1.000  O
  O43      1.0000 0.83991  0.28446  0.02022  Biso   1.000  O
  O44      1.0000 0.13304  0.99133  0.85423  Biso   1.000  O
  O45      1.0000 0.13304  0.15732  0.85423  Biso   1.000  O
  O46      1.0000 0.83991  0.99133  0.14736  Biso   1.000  O
  O47      1.0000 0.00590  0.28446  0.85423  Biso   1.000  O
  O48      1.0000 0.83991  0.99133  0.02022  Biso   1.000  O
  O49      1.0000 0.83991  0.15732  0.85423  Biso   1.000  O
  O50      1.0000 0.13304  0.99133  0.02022  Biso   1.000  O
  O51      1.0000 0.83991  0.28446  0.85423  Biso   1.000  O
  O52      1.0000 0.00590  0.99133  0.14736  Biso   1.000  O
