data_image0
_cell_length_a       18.2751
_cell_length_b       18.2751
_cell_length_c       18.2751
_cell_angle_alpha    60
_cell_angle_beta     60
_cell_angle_gamma    60

_symmetry_space_group_name_H-M    "P 1"
_symmetry_int_tables_number       1

loop_
  _symmetry_equiv_pos_as_xyz
  'x, y, z'

loop_
  _atom_site_label
  _atom_site_occupancy
  _atom_site_fract_x
  _atom_site_fract_y
  _atom_site_fract_z
  _atom_site_thermal_displace_type
  _atom_site_B_iso_or_equiv
  _atom_site_type_symbol
  C1       1.0000 0.29350  0.29349  0.11952  Biso   1.000  C
  C2       1.0000 0.29350  0.29349  0.29349  Biso   1.000  C
  C3       1.0000 0.11953  0.29349  0.29349  Biso   1.000  C
  C4       1.0000 0.29350  0.11952  0.29349  Biso   1.000  C
  C5       1.0000 0.70650  0.70651  0.88048  Biso   1.000  C
  C6       1.0000 0.70650  0.70651  0.70651  Biso   1.000  C
  C7       1.0000 0.70650  0.88048  0.70651  Biso   1.000  C
  C8       1.0000 0.88047  0.70651  0.70651  Biso   1.000  C
  C9       1.0000 0.45530  0.45530  0.93570  Biso   1.000  C
  C10      1.0000 0.45530  0.45530  0.15370  Biso   1.000  C
  C11      1.0000 0.93570  0.15370  0.45530  Biso   1.000  C
  C12      1.0000 0.15370  0.93570  0.45530  Biso   1.000  C
  C13      1.0000 0.45530  0.93570  0.15370  Biso   1.000  C
  C14      1.0000 0.45530  0.15370  0.93570  Biso   1.000  C
  C15      1.0000 0.93570  0.45530  0.45530  Biso   1.000  C
  C16      1.0000 0.15370  0.45530  0.45530  Biso   1.000  C
  C17      1.0000 0.45530  0.15370  0.45530  Biso   1.000  C
  C18      1.0000 0.45530  0.93570  0.45530  Biso   1.000  C
  C19      1.0000 0.93570  0.45530  0.15370  Biso   1.000  C
  C20      1.0000 0.15370  0.45530  0.93570  Biso   1.000  C
  C21      1.0000 0.54470  0.54470  0.06430  Biso   1.000  C
  C22      1.0000 0.54470  0.54470  0.84630  Biso   1.000  C
  C23      1.0000 0.84630  0.06430  0.54470  Biso   1.000  C
  C24      1.0000 0.06430  0.84630  0.54470  Biso   1.000  C
  C25      1.0000 0.06430  0.54470  0.84630  Biso   1.000  C
  C26      1.0000 0.84630  0.54470  0.06430  Biso   1.000  C
  C27      1.0000 0.54470  0.06430  0.54470  Biso   1.000  C
  C28      1.0000 0.54470  0.84630  0.54470  Biso   1.000  C
  C29      1.0000 0.84630  0.54470  0.54470  Biso   1.000  C
  C30      1.0000 0.06430  0.54470  0.54470  Biso   1.000  C
  C31      1.0000 0.54470  0.06430  0.84630  Biso   1.000  C
  C32      1.0000 0.54470  0.84630  0.06430  Biso   1.000  C
  C33      1.0000 0.47331  0.47331  0.96231  Biso   1.000  C
  C34      1.0000 0.47331  0.47331  0.09107  Biso   1.000  C
  C35      1.0000 0.96231  0.09107  0.47331  Biso   1.000  C
  C36      1.0000 0.09107  0.96231  0.47331  Biso   1.000  C
  C37      1.0000 0.47331  0.96231  0.09107  Biso   1.000  C
  C38      1.0000 0.47331  0.09107  0.96231  Biso   1.000  C
  C39      1.0000 0.96231  0.47331  0.47331  Biso   1.000  C
  C40      1.0000 0.09107  0.47331  0.47331  Biso   1.000  C
  C41      1.0000 0.47331  0.09107  0.47331  Biso   1.000  C
  C42      1.0000 0.47331  0.96231  0.47331  Biso   1.000  C
  C43      1.0000 0.96231  0.47331  0.09107  Biso   1.000  C
  C44      1.0000 0.09107  0.47331  0.96231  Biso   1.000  C
  C45      1.0000 0.52669  0.52669  0.03769  Biso   1.000  C
  C46      1.0000 0.52669  0.52669  0.90893  Biso   1.000  C
  C47      1.0000 0.90893  0.03769  0.52669  Biso   1.000  C
  C48      1.0000 0.03769  0.90893  0.52669  Biso   1.000  C
  C49      1.0000 0.03769  0.52669  0.90893  Biso   1.000  C
  C50      1.0000 0.90893  0.52669  0.03769  Biso   1.000  C
  C51      1.0000 0.52669  0.03769  0.52669  Biso   1.000  C
  C52      1.0000 0.52669  0.90893  0.52669  Biso   1.000  C
  C53      1.0000 0.90893  0.52669  0.52669  Biso   1.000  C
  C54      1.0000 0.03769  0.52669  0.52669  Biso   1.000  C
  C55      1.0000 0.52669  0.03769  0.90893  Biso   1.000  C
  C56      1.0000 0.52669  0.90893  0.03769  Biso   1.000  C
  C57      1.0000 0.38853  0.38853  0.11147  Biso   1.000  C
  C58      1.0000 0.44625  0.44625  0.05375  Biso   1.000  C
  C59      1.0000 0.11147  0.11147  0.38853  Biso   1.000  C
  C60      1.0000 0.05375  0.05375  0.44625  Biso   1.000  C
  C61      1.0000 0.38853  0.11147  0.11147  Biso   1.000  C
  C62      1.0000 0.44625  0.05375  0.05375  Biso   1.000  C
  C63      1.0000 0.11147  0.38853  0.38853  Biso   1.000  C
  C64      1.0000 0.05375  0.44625  0.44625  Biso   1.000  C
  C65      1.0000 0.38853  0.11147  0.38853  Biso   1.000  C
  C66      1.0000 0.44625  0.05375  0.44625  Biso   1.000  C
  C67      1.0000 0.11147  0.38853  0.11147  Biso   1.000  C
  C68      1.0000 0.05375  0.44625  0.05375  Biso   1.000  C
  C69      1.0000 0.61147  0.61147  0.88853  Biso   1.000  C
  C70      1.0000 0.55375  0.55375  0.94625  Biso   1.000  C
  C71      1.0000 0.88853  0.88853  0.61147  Biso   1.000  C
  C72      1.0000 0.94625  0.94625  0.55375  Biso   1.000  C
  C73      1.0000 0.88853  0.61147  0.88853  Biso   1.000  C
  C74      1.0000 0.94625  0.55375  0.94625  Biso   1.000  C
  C75      1.0000 0.61147  0.88853  0.61147  Biso   1.000  C
  C76      1.0000 0.55375  0.94625  0.55375  Biso   1.000  C
  C77      1.0000 0.88853  0.61147  0.61147  Biso   1.000  C
  C78      1.0000 0.94625  0.55375  0.55375  Biso   1.000  C
  C79      1.0000 0.61147  0.88853  0.88853  Biso   1.000  C
  C80      1.0000 0.55375  0.94625  0.94625  Biso   1.000  C
  C81      1.0000 0.25000  0.25000  0.25000  Biso   1.000  C
  C82      1.0000 0.75000  0.75000  0.75000  Biso   1.000  C
  C83      1.0000 0.36609  0.36609  0.07299  Biso   1.000  C
  C84      1.0000 0.36609  0.36609  0.19483  Biso   1.000  C
  C85      1.0000 0.07299  0.19483  0.36609  Biso   1.000  C
  C86      1.0000 0.19483  0.07299  0.36609  Biso   1.000  C
  C87      1.0000 0.36609  0.07299  0.19483  Biso   1.000  C
  C88      1.0000 0.36609  0.19483  0.07299  Biso   1.000  C
  C89      1.0000 0.07299  0.36609  0.36609  Biso   1.000  C
  C90      1.0000 0.19483  0.36609  0.36609  Biso   1.000  C
  C91      1.0000 0.36609  0.19483  0.36609  Biso   1.000  C
  C92      1.0000 0.36609  0.07299  0.36609  Biso   1.000  C
  C93      1.0000 0.07299  0.36609  0.19483  Biso   1.000  C
  C94      1.0000 0.19483  0.36609  0.07299  Biso   1.000  C
  C95      1.0000 0.63391  0.63391  0.92701  Biso   1.000  C
  C96      1.0000 0.63391  0.63391  0.80517  Biso   1.000  C
  C97      1.0000 0.80517  0.92701  0.63391  Biso   1.000  C
  C98      1.0000 0.92701  0.80517  0.63391  Biso   1.000  C
  C99      1.0000 0.92701  0.63391  0.80517  Biso   1.000  C
  C100     1.0000 0.80517  0.63391  0.92701  Biso   1.000  C
  C101     1.0000 0.63391  0.92701  0.63391  Biso   1.000  C
  C102     1.0000 0.63391  0.80517  0.63391  Biso   1.000  C
  C103     1.0000 0.80517  0.63391  0.63391  Biso   1.000  C
  C104     1.0000 0.92701  0.63391  0.63391  Biso   1.000  C
  C105     1.0000 0.63391  0.92701  0.80517  Biso   1.000  C
  C106     1.0000 0.63391  0.80517  0.92701  Biso   1.000  C
  O1       1.0000 0.49056  0.64182  0.33265  Biso   1.000  O
  O2       1.0000 0.49056  0.64182  0.50485  Biso   1.000  O
  O3       1.0000 0.31836  0.64182  0.50485  Biso   1.000  O
  O4       1.0000 0.49056  0.46962  0.50485  Biso   1.000  O
  O5       1.0000 0.91168  0.06296  0.09819  Biso   1.000  O
  O6       1.0000 0.91168  0.06296  0.92599  Biso   1.000  O
  O7       1.0000 0.91168  0.23516  0.92599  Biso   1.000  O
  O8       1.0000 0.08388  0.06296  0.92599  Biso   1.000  O
  O9       1.0000 0.35476  0.80130  0.14949  Biso   1.000  O
  O10      1.0000 0.65003  0.50604  0.66433  Biso   1.000  O
  O11      1.0000 0.13518  0.80130  0.36907  Biso   1.000  O
  O12      1.0000 0.65003  0.28646  0.66433  Biso   1.000  O
  O13      1.0000 0.35476  0.28646  0.66433  Biso   1.000  O
  O14      1.0000 0.65003  0.80130  0.14949  Biso   1.000  O
  O15      1.0000 0.13518  0.50604  0.66433  Biso   1.000  O
  O16      1.0000 0.65003  0.80130  0.36907  Biso   1.000  O
  O17      1.0000 0.35476  0.80130  0.66433  Biso   1.000  O
  O18      1.0000 0.65003  0.28646  0.36907  Biso   1.000  O
  O19      1.0000 0.13518  0.80130  0.66433  Biso   1.000  O
  O20      1.0000 0.65003  0.50604  0.14949  Biso   1.000  O
  O21      1.0000 0.75221  0.19875  0.28136  Biso   1.000  O
  O22      1.0000 0.04747  0.90348  0.76651  Biso   1.000  O
  O23      1.0000 0.75221  0.41832  0.06178  Biso   1.000  O
  O24      1.0000 0.26705  0.90348  0.76651  Biso   1.000  O
  O25      1.0000 0.26705  0.19875  0.76651  Biso   1.000  O
  O26      1.0000 0.75221  0.90348  0.28136  Biso   1.000  O
  O27      1.0000 0.04747  0.41832  0.76651  Biso   1.000  O
  O28      1.0000 0.75221  0.90348  0.06178  Biso   1.000  O
  O29      1.0000 0.75221  0.19875  0.76651  Biso   1.000  O
  O30      1.0000 0.26705  0.90348  0.06178  Biso   1.000  O
  O31      1.0000 0.75221  0.41832  0.76651  Biso   1.000  O
  O32      1.0000 0.04747  0.90348  0.28136  Biso   1.000  O
  O33      1.0000 0.29189  0.81950  0.17595  Biso   1.000  O
  O34      1.0000 0.66823  0.44317  0.68254  Biso   1.000  O
  O35      1.0000 0.16165  0.81950  0.30620  Biso   1.000  O
  O36      1.0000 0.66823  0.31292  0.68254  Biso   1.000  O
  O37      1.0000 0.29189  0.31292  0.68254  Biso   1.000  O
  O38      1.0000 0.66823  0.81950  0.17595  Biso   1.000  O
  O39      1.0000 0.16165  0.44317  0.68254  Biso   1.000  O
  O40      1.0000 0.66823  0.81950  0.30620  Biso   1.000  O
  O41      1.0000 0.29189  0.81950  0.68254  Biso   1.000  O
  O42      1.0000 0.66823  0.31292  0.30620  Biso   1.000  O
  O43      1.0000 0.16165  0.81950  0.68254  Biso   1.000  O
  O44      1.0000 0.66823  0.44317  0.17595  Biso   1.000  O
  O45      1.0000 0.73401  0.26161  0.25489  Biso   1.000  O
  O46      1.0000 0.11034  0.88528  0.74831  Biso   1.000  O
  O47      1.0000 0.73401  0.39186  0.12465  Biso   1.000  O
  O48      1.0000 0.24059  0.88528  0.74831  Biso   1.000  O
  O49      1.0000 0.24059  0.26161  0.74831  Biso   1.000  O
  O50      1.0000 0.73401  0.88528  0.25489  Biso   1.000  O
  O51      1.0000 0.11034  0.39186  0.74831  Biso   1.000  O
  O52      1.0000 0.73401  0.88528  0.12465  Biso   1.000  O
  O53      1.0000 0.73401  0.26161  0.74831  Biso   1.000  O
  O54      1.0000 0.24059  0.88528  0.12465  Biso   1.000  O
  O55      1.0000 0.73401  0.39186  0.74831  Biso   1.000  O
  O56      1.0000 0.11034  0.88528  0.25489  Biso   1.000  O
  O57      1.0000 0.25355  0.79273  0.26785  Biso   1.000  O
  O58      1.0000 0.31110  0.73517  0.32541  Biso   1.000  O
  O59      1.0000 0.64145  0.40482  0.65576  Biso   1.000  O
  O60      1.0000 0.58390  0.46238  0.59820  Biso   1.000  O
  O61      1.0000 0.25355  0.40482  0.65576  Biso   1.000  O
  O62      1.0000 0.31110  0.46238  0.59820  Biso   1.000  O
  O63      1.0000 0.64145  0.79273  0.26785  Biso   1.000  O
  O64      1.0000 0.58390  0.73517  0.32541  Biso   1.000  O
  O65      1.0000 0.25355  0.79273  0.65576  Biso   1.000  O
  O66      1.0000 0.31110  0.73517  0.59820  Biso   1.000  O
  O67      1.0000 0.64145  0.40482  0.26785  Biso   1.000  O
  O68      1.0000 0.58390  0.46238  0.32541  Biso   1.000  O
  O69      1.0000 0.76078  0.29996  0.16299  Biso   1.000  O
  O70      1.0000 0.81834  0.24241  0.10544  Biso   1.000  O
  O71      1.0000 0.14869  0.91206  0.77509  Biso   1.000  O
  O72      1.0000 0.09113  0.96961  0.83264  Biso   1.000  O
  O73      1.0000 0.14869  0.29996  0.77509  Biso   1.000  O
  O74      1.0000 0.09113  0.24241  0.83264  Biso   1.000  O
  O75      1.0000 0.76078  0.91206  0.16299  Biso   1.000  O
  O76      1.0000 0.81834  0.96961  0.10544  Biso   1.000  O
  O77      1.0000 0.76078  0.29996  0.77509  Biso   1.000  O
  O78      1.0000 0.81834  0.24241  0.83264  Biso   1.000  O
  O79      1.0000 0.14869  0.91206  0.16299  Biso   1.000  O
  O80      1.0000 0.09113  0.96961  0.10544  Biso   1.000  O
  O81      1.0000 0.44750  0.59877  0.46181  Biso   1.000  O
  O82      1.0000 0.95473  0.10601  0.96904  Biso   1.000  O
  O83      1.0000 0.39634  0.71344  0.28363  Biso   1.000  O
  O84      1.0000 0.56217  0.54762  0.57647  Biso   1.000  O
  O85      1.0000 0.26933  0.71344  0.41065  Biso   1.000  O
  O86      1.0000 0.56217  0.42060  0.57647  Biso   1.000  O
  O87      1.0000 0.39634  0.42060  0.57647  Biso   1.000  O
  O88      1.0000 0.56217  0.71344  0.28363  Biso   1.000  O
  O89      1.0000 0.26933  0.54762  0.57647  Biso   1.000  O
  O90      1.0000 0.56217  0.71344  0.41065  Biso   1.000  O
  O91      1.0000 0.39634  0.71344  0.57647  Biso   1.000  O
  O92      1.0000 0.56217  0.42060  0.41065  Biso   1.000  O
  O93      1.0000 0.26933  0.71344  0.57647  Biso   1.000  O
  O94      1.0000 0.56217  0.54762  0.28363  Biso   1.000  O
  O95      1.0000 0.84007  0.15717  0.14722  Biso   1.000  O
  O96      1.0000 0.00589  0.99134  0.85437  Biso   1.000  O
  O97      1.0000 0.84007  0.28418  0.02020  Biso   1.000  O
  O98      1.0000 0.13291  0.99134  0.85437  Biso   1.000  O
  O99      1.0000 0.13291  0.15717  0.85437  Biso   1.000  O
  O100     1.0000 0.84007  0.99134  0.14722  Biso   1.000  O
  O101     1.0000 0.00589  0.28418  0.85437  Biso   1.000  O
  O102     1.0000 0.84007  0.99134  0.02020  Biso   1.000  O
  O103     1.0000 0.84007  0.15717  0.85437  Biso   1.000  O
  O104     1.0000 0.13291  0.99134  0.02020  Biso   1.000  O
  O105     1.0000 0.84007  0.28418  0.85437  Biso   1.000  O
  O106     1.0000 0.00589  0.99134  0.14722  Biso   1.000  O
