data_image0
_cell_length_a       18.255
_cell_length_b       18.255
_cell_length_c       18.255
_cell_angle_alpha    60
_cell_angle_beta     60
_cell_angle_gamma    60

_symmetry_space_group_name_H-M    "P 1"
_symmetry_int_tables_number       1

loop_
  _symmetry_equiv_pos_as_xyz
  'x, y, z'

loop_
  _atom_site_label
  _atom_site_occupancy
  _atom_site_fract_x
  _atom_site_fract_y
  _atom_site_fract_z
  _atom_site_thermal_displace_type
  _atom_site_B_iso_or_equiv
  _atom_site_type_symbol
  C1       1.0000 0.29354  0.29354  0.11938  Biso   1.000  C
  C2       1.0000 0.29354  0.29354  0.29354  Biso   1.000  C
  C3       1.0000 0.11938  0.29354  0.29354  Biso   1.000  C
  C4       1.0000 0.29354  0.11938  0.29354  Biso   1.000  C
  C5       1.0000 0.70646  0.70646  0.88062  Biso   1.000  C
  C6       1.0000 0.70646  0.70646  0.70646  Biso   1.000  C
  C7       1.0000 0.70646  0.88062  0.70646  Biso   1.000  C
  C8       1.0000 0.88062  0.70646  0.70646  Biso   1.000  C
  C9       1.0000 0.45570  0.45570  0.93630  Biso   1.000  C
  C10      1.0000 0.45570  0.45570  0.15230  Biso   1.000  C
  C11      1.0000 0.93630  0.15230  0.45570  Biso   1.000  C
  C12      1.0000 0.15230  0.93630  0.45570  Biso   1.000  C
  C13      1.0000 0.45570  0.93630  0.15230  Biso   1.000  C
  C14      1.0000 0.45570  0.15230  0.93630  Biso   1.000  C
  C15      1.0000 0.93630  0.45570  0.45570  Biso   1.000  C
  C16      1.0000 0.15230  0.45570  0.45570  Biso   1.000  C
  C17      1.0000 0.45570  0.15230  0.45570  Biso   1.000  C
  C18      1.0000 0.45570  0.93630  0.45570  Biso   1.000  C
  C19      1.0000 0.93630  0.45570  0.15230  Biso   1.000  C
  C20      1.0000 0.15230  0.45570  0.93630  Biso   1.000  C
  C21      1.0000 0.54430  0.54430  0.06370  Biso   1.000  C
  C22      1.0000 0.54430  0.54430  0.84770  Biso   1.000  C
  C23      1.0000 0.84770  0.06370  0.54430  Biso   1.000  C
  C24      1.0000 0.06370  0.84770  0.54430  Biso   1.000  C
  C25      1.0000 0.06370  0.54430  0.84770  Biso   1.000  C
  C26      1.0000 0.84770  0.54430  0.06370  Biso   1.000  C
  C27      1.0000 0.54430  0.06370  0.54430  Biso   1.000  C
  C28      1.0000 0.54430  0.84770  0.54430  Biso   1.000  C
  C29      1.0000 0.84770  0.54430  0.54430  Biso   1.000  C
  C30      1.0000 0.06370  0.54430  0.54430  Biso   1.000  C
  C31      1.0000 0.54430  0.06370  0.84770  Biso   1.000  C
  C32      1.0000 0.54430  0.84770  0.06370  Biso   1.000  C
  C33      1.0000 0.47332  0.47332  0.96310  Biso   1.000  C
  C34      1.0000 0.47332  0.47332  0.09026  Biso   1.000  C
  C35      1.0000 0.96310  0.09026  0.47332  Biso   1.000  C
  C36      1.0000 0.09026  0.96310  0.47332  Biso   1.000  C
  C37      1.0000 0.47332  0.96310  0.09026  Biso   1.000  C
  C38      1.0000 0.47332  0.09026  0.96310  Biso   1.000  C
  C39      1.0000 0.96310  0.47332  0.47332  Biso   1.000  C
  C40      1.0000 0.09026  0.47332  0.47332  Biso   1.000  C
  C41      1.0000 0.47332  0.09026  0.47332  Biso   1.000  C
  C42      1.0000 0.47332  0.96310  0.47332  Biso   1.000  C
  C43      1.0000 0.96310  0.47332  0.09026  Biso   1.000  C
  C44      1.0000 0.09026  0.47332  0.96310  Biso   1.000  C
  C45      1.0000 0.52668  0.52668  0.03690  Biso   1.000  C
  C46      1.0000 0.52668  0.52668  0.90974  Biso   1.000  C
  C47      1.0000 0.90974  0.03690  0.52668  Biso   1.000  C
  C48      1.0000 0.03690  0.90974  0.52668  Biso   1.000  C
  C49      1.0000 0.03690  0.52668  0.90974  Biso   1.000  C
  C50      1.0000 0.90974  0.52668  0.03690  Biso   1.000  C
  C51      1.0000 0.52668  0.03690  0.52668  Biso   1.000  C
  C52      1.0000 0.52668  0.90974  0.52668  Biso   1.000  C
  C53      1.0000 0.90974  0.52668  0.52668  Biso   1.000  C
  C54      1.0000 0.03690  0.52668  0.52668  Biso   1.000  C
  C55      1.0000 0.52668  0.03690  0.90974  Biso   1.000  C
  C56      1.0000 0.52668  0.90974  0.03690  Biso   1.000  C
  C57      1.0000 0.38870  0.38870  0.11130  Biso   1.000  C
  C58      1.0000 0.44580  0.44580  0.05420  Biso   1.000  C
  C59      1.0000 0.11130  0.11130  0.38870  Biso   1.000  C
  C60      1.0000 0.05420  0.05420  0.44580  Biso   1.000  C
  C61      1.0000 0.38870  0.11130  0.11130  Biso   1.000  C
  C62      1.0000 0.44580  0.05420  0.05420  Biso   1.000  C
  C63      1.0000 0.11130  0.38870  0.38870  Biso   1.000  C
  C64      1.0000 0.05420  0.44580  0.44580  Biso   1.000  C
  C65      1.0000 0.38870  0.11130  0.38870  Biso   1.000  C
  C66      1.0000 0.44580  0.05420  0.44580  Biso   1.000  C
  C67      1.0000 0.11130  0.38870  0.11130  Biso   1.000  C
  C68      1.0000 0.05420  0.44580  0.05420  Biso   1.000  C
  C69      1.0000 0.61130  0.61130  0.88870  Biso   1.000  C
  C70      1.0000 0.55420  0.55420  0.94580  Biso   1.000  C
  C71      1.0000 0.88870  0.88870  0.61130  Biso   1.000  C
  C72      1.0000 0.94580  0.94580  0.55420  Biso   1.000  C
  C73      1.0000 0.88870  0.61130  0.88870  Biso   1.000  C
  C74      1.0000 0.94580  0.55420  0.94580  Biso   1.000  C
  C75      1.0000 0.61130  0.88870  0.61130  Biso   1.000  C
  C76      1.0000 0.55420  0.94580  0.55420  Biso   1.000  C
  C77      1.0000 0.88870  0.61130  0.61130  Biso   1.000  C
  C78      1.0000 0.94580  0.55420  0.55420  Biso   1.000  C
  C79      1.0000 0.61130  0.88870  0.88870  Biso   1.000  C
  C80      1.0000 0.55420  0.94580  0.94580  Biso   1.000  C
  C81      1.0000 0.25000  0.25000  0.25000  Biso   1.000  C
  C82      1.0000 0.75000  0.75000  0.75000  Biso   1.000  C
  C83      1.0000 0.36613  0.36613  0.07303  Biso   1.000  C
  C84      1.0000 0.36613  0.36613  0.19471  Biso   1.000  C
  C85      1.0000 0.07303  0.19471  0.36613  Biso   1.000  C
  C86      1.0000 0.19471  0.07303  0.36613  Biso   1.000  C
  C87      1.0000 0.36613  0.07303  0.19471  Biso   1.000  C
  C88      1.0000 0.36613  0.19471  0.07303  Biso   1.000  C
  C89      1.0000 0.07303  0.36613  0.36613  Biso   1.000  C
  C90      1.0000 0.19471  0.36613  0.36613  Biso   1.000  C
  C91      1.0000 0.36613  0.19471  0.36613  Biso   1.000  C
  C92      1.0000 0.36613  0.07303  0.36613  Biso   1.000  C
  C93      1.0000 0.07303  0.36613  0.19471  Biso   1.000  C
  C94      1.0000 0.19471  0.36613  0.07303  Biso   1.000  C
  C95      1.0000 0.63387  0.63387  0.92697  Biso   1.000  C
  C96      1.0000 0.63387  0.63387  0.80529  Biso   1.000  C
  C97      1.0000 0.80529  0.92697  0.63387  Biso   1.000  C
  C98      1.0000 0.92697  0.80529  0.63387  Biso   1.000  C
  C99      1.0000 0.92697  0.63387  0.80529  Biso   1.000  C
  C100     1.0000 0.80529  0.63387  0.92697  Biso   1.000  C
  C101     1.0000 0.63387  0.92697  0.63387  Biso   1.000  C
  C102     1.0000 0.63387  0.80529  0.63387  Biso   1.000  C
  C103     1.0000 0.80529  0.63387  0.63387  Biso   1.000  C
  C104     1.0000 0.92697  0.63387  0.63387  Biso   1.000  C
  C105     1.0000 0.63387  0.92697  0.80529  Biso   1.000  C
  C106     1.0000 0.63387  0.80529  0.92697  Biso   1.000  C
  O1       1.0000 0.07656  0.58778  0.58761  Biso   1.000  O
  O2       1.0000 0.48898  0.17525  0.00022  Biso   1.000  O
  O3       1.0000 0.48898  0.00043  0.00022  Biso   1.000  O
  O4       1.0000 0.07656  0.41297  0.58761  Biso   1.000  O
  O5       1.0000 0.07611  0.58812  0.41256  Biso   1.000  O
  O6       1.0000 0.90135  0.58793  0.58771  Biso   1.000  O
  O7       1.0000 0.48943  0.00009  0.17527  Biso   1.000  O
  O8       1.0000 0.66418  0.00028  0.00012  Biso   1.000  O
  O9       1.0000 0.24000  0.23303  0.44408  Biso   1.000  O
  O10      1.0000 0.23328  0.44814  0.23243  Biso   1.000  O
  O11      1.0000 0.93624  0.23412  0.74772  Biso   1.000  O
  O12      1.0000 0.71842  0.44562  0.75001  Biso   1.000  O
  O13      1.0000 0.24081  0.44762  0.74522  Biso   1.000  O
  O14      1.0000 0.32554  0.84040  0.14375  Biso   1.000  O
  O15      1.0000 0.33226  0.83719  0.35540  Biso   1.000  O
  O16      1.0000 0.62930  0.84131  0.84011  Biso   1.000  O
  O17      1.0000 0.84712  0.83731  0.83781  Biso   1.000  O
  O18      1.0000 0.32472  0.35690  0.84261  Biso   1.000  O
  O19      1.0000 0.32554  0.35518  0.14375  Biso   1.000  O
  O20      1.0000 0.33226  0.14007  0.35540  Biso   1.000  O
  O21      1.0000 0.62930  0.35410  0.84011  Biso   1.000  O
  O22      1.0000 0.84712  0.14260  0.83781  Biso   1.000  O
  O23      1.0000 0.32473  0.14060  0.84261  Biso   1.000  O
  O24      1.0000 0.24000  0.74782  0.44408  Biso   1.000  O
  O25      1.0000 0.23328  0.75103  0.23243  Biso   1.000  O
  O26      1.0000 0.93624  0.74690  0.74772  Biso   1.000  O
  O27      1.0000 0.71842  0.75090  0.75001  Biso   1.000  O
  O28      1.0000 0.24081  0.23132  0.74522  Biso   1.000  O
  O29      1.0000 0.71930  0.74972  0.44618  Biso   1.000  O
  O30      1.0000 0.93311  0.75083  0.23013  Biso   1.000  O
  O31      1.0000 0.84624  0.83850  0.14165  Biso   1.000  O
  O32      1.0000 0.63243  0.83739  0.35770  Biso   1.000  O
  O33      1.0000 0.17082  0.40445  0.40769  Biso   1.000  O
  O34      1.0000 0.23039  0.34638  0.34650  Biso   1.000  O
  O35      1.0000 0.25779  0.25873  0.38190  Biso   1.000  O
  O36      1.0000 0.25267  0.38606  0.25842  Biso   1.000  O
  O37      1.0000 0.89184  0.40763  0.68473  Biso   1.000  O
  O38      1.0000 0.83777  0.34915  0.74002  Biso   1.000  O
  O39      1.0000 0.87407  0.26030  0.76571  Biso   1.000  O
  O40      1.0000 0.74611  0.38364  0.76751  Biso   1.000  O
  O41      1.0000 0.25670  0.38554  0.76531  Biso   1.000  O
  O42      1.0000 0.39472  0.90627  0.18014  Biso   1.000  O
  O43      1.0000 0.33515  0.84659  0.24133  Biso   1.000  O
  O44      1.0000 0.30775  0.82170  0.20593  Biso   1.000  O
  O45      1.0000 0.31286  0.82050  0.32941  Biso   1.000  O
  O46      1.0000 0.67370  0.90748  0.90310  Biso   1.000  O
  O47      1.0000 0.72777  0.85021  0.84781  Biso   1.000  O
  O48      1.0000 0.69148  0.82332  0.82212  Biso   1.000  O
  O49      1.0000 0.81943  0.82052  0.82032  Biso   1.000  O
  O50      1.0000 0.30883  0.33081  0.82252  Biso   1.000  O
  O51      1.0000 0.39472  0.18376  0.18014  Biso   1.000  O
  O52      1.0000 0.33515  0.24184  0.24133  Biso   1.000  O
  O53      1.0000 0.30775  0.32949  0.20593  Biso   1.000  O
  O54      1.0000 0.31286  0.20215  0.32941  Biso   1.000  O
  O55      1.0000 0.67370  0.18058  0.90310  Biso   1.000  O
  O56      1.0000 0.72777  0.23906  0.84781  Biso   1.000  O
  O57      1.0000 0.69147  0.32791  0.82212  Biso   1.000  O
  O58      1.0000 0.81943  0.20458  0.82032  Biso   1.000  O
  O59      1.0000 0.30883  0.20268  0.82252  Biso   1.000  O
  O60      1.0000 0.17082  0.68194  0.40769  Biso   1.000  O
  O61      1.0000 0.23039  0.74162  0.34650  Biso   1.000  O
  O62      1.0000 0.25779  0.76651  0.38190  Biso   1.000  O
  O63      1.0000 0.25268  0.76772  0.25842  Biso   1.000  O
  O64      1.0000 0.89184  0.68073  0.68473  Biso   1.000  O
  O65      1.0000 0.83777  0.73801  0.74002  Biso   1.000  O
  O66      1.0000 0.87406  0.76489  0.76571  Biso   1.000  O
  O67      1.0000 0.74611  0.76769  0.76751  Biso   1.000  O
  O68      1.0000 0.25671  0.25741  0.76531  Biso   1.000  O
  O69      1.0000 0.89853  0.68274  0.40089  Biso   1.000  O
  O70      1.0000 0.83635  0.73992  0.34870  Biso   1.000  O
  O71      1.0000 0.74649  0.76711  0.38419  Biso   1.000  O
  O72      1.0000 0.87103  0.76832  0.25722  Biso   1.000  O
  O73      1.0000 0.16933  0.40943  0.67673  Biso   1.000  O
  O74      1.0000 0.22931  0.34775  0.74012  Biso   1.000  O
  O75      1.0000 0.66701  0.90547  0.18694  Biso   1.000  O
  O76      1.0000 0.72919  0.84829  0.23913  Biso   1.000  O
  O77      1.0000 0.81905  0.82110  0.20363  Biso   1.000  O
  O78      1.0000 0.69451  0.81990  0.33061  Biso   1.000  O
  O79      1.0000 0.39621  0.17878  0.91110  Biso   1.000  O
  O80      1.0000 0.33623  0.24046  0.84771  Biso   1.000  O
  O81      1.0000 0.15072  0.48982  0.36180  Biso   1.000  O
  O82      1.0000 0.15203  0.36056  0.49187  Biso   1.000  O
  O83      1.0000 0.85196  0.49080  0.65823  Biso   1.000  O
  O84      1.0000 0.97811  0.36355  0.66223  Biso   1.000  O
  O85      1.0000 0.15024  0.49180  0.65943  Biso   1.000  O
  O86      1.0000 0.41482  0.92566  0.22603  Biso   1.000  O
  O87      1.0000 0.41351  0.92777  0.09596  Biso   1.000  O
  O88      1.0000 0.71358  0.92428  0.92959  Biso   1.000  O
  O89      1.0000 0.58743  0.92718  0.92560  Biso   1.000  O
  O90      1.0000 0.41530  0.22476  0.92839  Biso   1.000  O
  O91      1.0000 0.41482  0.09839  0.22603  Biso   1.000  O
  O92      1.0000 0.41351  0.22765  0.09596  Biso   1.000  O
  O93      1.0000 0.71358  0.09741  0.92959  Biso   1.000  O
  O94      1.0000 0.58743  0.22466  0.92560  Biso   1.000  O
  O95      1.0000 0.41530  0.09641  0.92839  Biso   1.000  O
  O96      1.0000 0.15072  0.66255  0.36180  Biso   1.000  O
  O97      1.0000 0.15203  0.66045  0.49187  Biso   1.000  O
  O98      1.0000 0.85196  0.66394  0.65823  Biso   1.000  O
  O99      1.0000 0.97811  0.66104  0.66223  Biso   1.000  O
  O100     1.0000 0.15024  0.36345  0.65943  Biso   1.000  O
  O101     1.0000 0.03338  0.54399  0.54356  Biso   1.000  O
  O102     1.0000 0.97929  0.66155  0.36250  Biso   1.000  O
  O103     1.0000 0.85335  0.66385  0.48387  Biso   1.000  O
  O104     1.0000 0.53216  0.04422  0.04427  Biso   1.000  O
  O105     1.0000 0.58625  0.92666  0.22533  Biso   1.000  O
  O106     1.0000 0.71219  0.92437  0.10396  Biso   1.000  O
