data_image0
_cell_length_a       18.2455
_cell_length_b       18.2455
_cell_length_c       18.2455
_cell_angle_alpha    60
_cell_angle_beta     60
_cell_angle_gamma    60

_symmetry_space_group_name_H-M    "P 1"
_symmetry_int_tables_number       1

loop_
  _symmetry_equiv_pos_as_xyz
  'x, y, z'

loop_
  _atom_site_label
  _atom_site_occupancy
  _atom_site_fract_x
  _atom_site_fract_y
  _atom_site_fract_z
  _atom_site_thermal_displace_type
  _atom_site_B_iso_or_equiv
  _atom_site_type_symbol
  C1       1.0000 0.29354  0.29354  0.11938  Biso   1.000  C
  C2       1.0000 0.29354  0.29354  0.29354  Biso   1.000  C
  C3       1.0000 0.11938  0.29354  0.29354  Biso   1.000  C
  C4       1.0000 0.29354  0.11938  0.29354  Biso   1.000  C
  C5       1.0000 0.70646  0.70646  0.88062  Biso   1.000  C
  C6       1.0000 0.70646  0.70646  0.70646  Biso   1.000  C
  C7       1.0000 0.70646  0.88062  0.70646  Biso   1.000  C
  C8       1.0000 0.88062  0.70646  0.70646  Biso   1.000  C
  C9       1.0000 0.45580  0.45580  0.93620  Biso   1.000  C
  C10      1.0000 0.45580  0.45580  0.15220  Biso   1.000  C
  C11      1.0000 0.93620  0.15220  0.45580  Biso   1.000  C
  C12      1.0000 0.15220  0.93620  0.45580  Biso   1.000  C
  C13      1.0000 0.45580  0.93620  0.15220  Biso   1.000  C
  C14      1.0000 0.45580  0.15220  0.93620  Biso   1.000  C
  C15      1.0000 0.93620  0.45580  0.45580  Biso   1.000  C
  C16      1.0000 0.15220  0.45580  0.45580  Biso   1.000  C
  C17      1.0000 0.45580  0.15220  0.45580  Biso   1.000  C
  C18      1.0000 0.45580  0.93620  0.45580  Biso   1.000  C
  C19      1.0000 0.93620  0.45580  0.15220  Biso   1.000  C
  C20      1.0000 0.15220  0.45580  0.93620  Biso   1.000  C
  C21      1.0000 0.54420  0.54420  0.06380  Biso   1.000  C
  C22      1.0000 0.54420  0.54420  0.84780  Biso   1.000  C
  C23      1.0000 0.84780  0.06380  0.54420  Biso   1.000  C
  C24      1.0000 0.06380  0.84780  0.54420  Biso   1.000  C
  C25      1.0000 0.06380  0.54420  0.84780  Biso   1.000  C
  C26      1.0000 0.84780  0.54420  0.06380  Biso   1.000  C
  C27      1.0000 0.54420  0.06380  0.54420  Biso   1.000  C
  C28      1.0000 0.54420  0.84780  0.54420  Biso   1.000  C
  C29      1.0000 0.84780  0.54420  0.54420  Biso   1.000  C
  C30      1.0000 0.06380  0.54420  0.54420  Biso   1.000  C
  C31      1.0000 0.54420  0.06380  0.84780  Biso   1.000  C
  C32      1.0000 0.54420  0.84780  0.06380  Biso   1.000  C
  C33      1.0000 0.47345  0.47345  0.96303  Biso   1.000  C
  C34      1.0000 0.47345  0.47345  0.09007  Biso   1.000  C
  C35      1.0000 0.96303  0.09007  0.47345  Biso   1.000  C
  C36      1.0000 0.09007  0.96303  0.47345  Biso   1.000  C
  C37      1.0000 0.47345  0.96303  0.09007  Biso   1.000  C
  C38      1.0000 0.47345  0.09007  0.96303  Biso   1.000  C
  C39      1.0000 0.96303  0.47345  0.47345  Biso   1.000  C
  C40      1.0000 0.09007  0.47345  0.47345  Biso   1.000  C
  C41      1.0000 0.47345  0.09007  0.47345  Biso   1.000  C
  C42      1.0000 0.47345  0.96303  0.47345  Biso   1.000  C
  C43      1.0000 0.96303  0.47345  0.09007  Biso   1.000  C
  C44      1.0000 0.09007  0.47345  0.96303  Biso   1.000  C
  C45      1.0000 0.52655  0.52655  0.03697  Biso   1.000  C
  C46      1.0000 0.52655  0.52655  0.90993  Biso   1.000  C
  C47      1.0000 0.90993  0.03697  0.52655  Biso   1.000  C
  C48      1.0000 0.03697  0.90993  0.52655  Biso   1.000  C
  C49      1.0000 0.03697  0.52655  0.90993  Biso   1.000  C
  C50      1.0000 0.90993  0.52655  0.03697  Biso   1.000  C
  C51      1.0000 0.52655  0.03697  0.52655  Biso   1.000  C
  C52      1.0000 0.52655  0.90993  0.52655  Biso   1.000  C
  C53      1.0000 0.90993  0.52655  0.52655  Biso   1.000  C
  C54      1.0000 0.03697  0.52655  0.52655  Biso   1.000  C
  C55      1.0000 0.52655  0.03697  0.90993  Biso   1.000  C
  C56      1.0000 0.52655  0.90993  0.03697  Biso   1.000  C
  C57      1.0000 0.38857  0.38857  0.11143  Biso   1.000  C
  C58      1.0000 0.44620  0.44620  0.05380  Biso   1.000  C
  C59      1.0000 0.11143  0.11143  0.38857  Biso   1.000  C
  C60      1.0000 0.05380  0.05380  0.44620  Biso   1.000  C
  C61      1.0000 0.38857  0.11143  0.11143  Biso   1.000  C
  C62      1.0000 0.44620  0.05380  0.05380  Biso   1.000  C
  C63      1.0000 0.11143  0.38857  0.38857  Biso   1.000  C
  C64      1.0000 0.05380  0.44620  0.44620  Biso   1.000  C
  C65      1.0000 0.38857  0.11143  0.38857  Biso   1.000  C
  C66      1.0000 0.44620  0.05380  0.44620  Biso   1.000  C
  C67      1.0000 0.11143  0.38857  0.11143  Biso   1.000  C
  C68      1.0000 0.05380  0.44620  0.05380  Biso   1.000  C
  C69      1.0000 0.61143  0.61143  0.88857  Biso   1.000  C
  C70      1.0000 0.55380  0.55380  0.94620  Biso   1.000  C
  C71      1.0000 0.88857  0.88857  0.61143  Biso   1.000  C
  C72      1.0000 0.94620  0.94620  0.55380  Biso   1.000  C
  C73      1.0000 0.88857  0.61143  0.88857  Biso   1.000  C
  C74      1.0000 0.94620  0.55380  0.94620  Biso   1.000  C
  C75      1.0000 0.61143  0.88857  0.61143  Biso   1.000  C
  C76      1.0000 0.55380  0.94620  0.55380  Biso   1.000  C
  C77      1.0000 0.88857  0.61143  0.61143  Biso   1.000  C
  C78      1.0000 0.94620  0.55380  0.55380  Biso   1.000  C
  C79      1.0000 0.61143  0.88857  0.88857  Biso   1.000  C
  C80      1.0000 0.55380  0.94620  0.94620  Biso   1.000  C
  C81      1.0000 0.25000  0.25000  0.25000  Biso   1.000  C
  C82      1.0000 0.75000  0.75000  0.75000  Biso   1.000  C
  C83      1.0000 0.36603  0.36603  0.07311  Biso   1.000  C
  C84      1.0000 0.36603  0.36603  0.19483  Biso   1.000  C
  C85      1.0000 0.07311  0.19483  0.36603  Biso   1.000  C
  C86      1.0000 0.19483  0.07311  0.36603  Biso   1.000  C
  C87      1.0000 0.36603  0.07311  0.19483  Biso   1.000  C
  C88      1.0000 0.36603  0.19483  0.07311  Biso   1.000  C
  C89      1.0000 0.07311  0.36603  0.36603  Biso   1.000  C
  C90      1.0000 0.19483  0.36603  0.36603  Biso   1.000  C
  C91      1.0000 0.36603  0.19483  0.36603  Biso   1.000  C
  C92      1.0000 0.36603  0.07311  0.36603  Biso   1.000  C
  C93      1.0000 0.07311  0.36603  0.19483  Biso   1.000  C
  C94      1.0000 0.19483  0.36603  0.07311  Biso   1.000  C
  C95      1.0000 0.63397  0.63397  0.92689  Biso   1.000  C
  C96      1.0000 0.63397  0.63397  0.80517  Biso   1.000  C
  C97      1.0000 0.80517  0.92689  0.63397  Biso   1.000  C
  C98      1.0000 0.92689  0.80517  0.63397  Biso   1.000  C
  C99      1.0000 0.92689  0.63397  0.80517  Biso   1.000  C
  C100     1.0000 0.80517  0.63397  0.92689  Biso   1.000  C
  C101     1.0000 0.63397  0.92689  0.63397  Biso   1.000  C
  C102     1.0000 0.63397  0.80517  0.63397  Biso   1.000  C
  C103     1.0000 0.80517  0.63397  0.63397  Biso   1.000  C
  C104     1.0000 0.92689  0.63397  0.63397  Biso   1.000  C
  C105     1.0000 0.63397  0.92689  0.80517  Biso   1.000  C
  C106     1.0000 0.63397  0.80517  0.92689  Biso   1.000  C
  O1       1.0000 0.89005  0.75915  0.43264  Biso   1.000  O
  O2       1.0000 0.06418  0.75916  0.25851  Biso   1.000  O
  O3       1.0000 0.89005  0.75915  0.25852  Biso   1.000  O
  O4       1.0000 0.89006  0.93328  0.25851  Biso   1.000  O
  O5       1.0000 0.47530  0.34682  0.67207  Biso   1.000  O
  O6       1.0000 0.30117  0.34682  0.84618  Biso   1.000  O
  O7       1.0000 0.47530  0.17271  0.84618  Biso   1.000  O
  O8       1.0000 0.47529  0.34682  0.84619  Biso   1.000  O
  O9       1.0000 0.03055  0.59704  0.61638  Biso   1.000  O
  O10      1.0000 0.24670  0.59704  0.40023  Biso   1.000  O
  O11      1.0000 0.72672  0.90087  0.09640  Biso   1.000  O
  O12      1.0000 0.72672  0.11702  0.09640  Biso   1.000  O
  O13      1.0000 0.72672  0.11702  0.40023  Biso   1.000  O
  O14      1.0000 0.72672  0.90087  0.61638  Biso   1.000  O
  O15      1.0000 0.03055  0.59704  0.09640  Biso   1.000  O
  O16      1.0000 0.24670  0.59704  0.09640  Biso   1.000  O
  O17      1.0000 0.24670  0.90087  0.09640  Biso   1.000  O
  O18      1.0000 0.03055  0.11702  0.09640  Biso   1.000  O
  O19      1.0000 0.72672  0.59704  0.40023  Biso   1.000  O
  O20      1.0000 0.72672  0.59704  0.61638  Biso   1.000  O
  O21      1.0000 0.33480  0.50895  0.48832  Biso   1.000  O
  O22      1.0000 0.11864  0.50895  0.70448  Biso   1.000  O
  O23      1.0000 0.63863  0.98896  0.00831  Biso   1.000  O
  O24      1.0000 0.63863  0.20512  0.00831  Biso   1.000  O
  O25      1.0000 0.63863  0.50895  0.70448  Biso   1.000  O
  O26      1.0000 0.63863  0.50895  0.48832  Biso   1.000  O
  O27      1.0000 0.33480  0.98896  0.00831  Biso   1.000  O
  O28      1.0000 0.11864  0.20512  0.00831  Biso   1.000  O
  O29      1.0000 0.11864  0.50895  0.00831  Biso   1.000  O
  O30      1.0000 0.33480  0.50895  0.00831  Biso   1.000  O
  O31      1.0000 0.63863  0.98896  0.70448  Biso   1.000  O
  O32      1.0000 0.63863  0.20512  0.48832  Biso   1.000  O
  O33      1.0000 0.09263  0.57936  0.58966  Biso   1.000  O
  O34      1.0000 0.21998  0.57936  0.46231  Biso   1.000  O
  O35      1.0000 0.70904  0.96295  0.07872  Biso   1.000  O
  O36      1.0000 0.70904  0.09030  0.07872  Biso   1.000  O
  O37      1.0000 0.70904  0.09030  0.46231  Biso   1.000  O
  O38      1.0000 0.70904  0.96295  0.58966  Biso   1.000  O
  O39      1.0000 0.09263  0.57936  0.07872  Biso   1.000  O
  O40      1.0000 0.21998  0.57936  0.07872  Biso   1.000  O
  O41      1.0000 0.21998  0.96295  0.07872  Biso   1.000  O
  O42      1.0000 0.09263  0.09030  0.07872  Biso   1.000  O
  O43      1.0000 0.70904  0.57936  0.46231  Biso   1.000  O
  O44      1.0000 0.70904  0.57936  0.58966  Biso   1.000  O
  O45      1.0000 0.27271  0.52663  0.51505  Biso   1.000  O
  O46      1.0000 0.14537  0.52663  0.64239  Biso   1.000  O
  O47      1.0000 0.65630  0.01569  0.02599  Biso   1.000  O
  O48      1.0000 0.65630  0.14303  0.02599  Biso   1.000  O
  O49      1.0000 0.65630  0.52663  0.64239  Biso   1.000  O
  O50      1.0000 0.65630  0.52663  0.51505  Biso   1.000  O
  O51      1.0000 0.27271  0.01569  0.02599  Biso   1.000  O
  O52      1.0000 0.14537  0.14303  0.02599  Biso   1.000  O
  O53      1.0000 0.14537  0.52663  0.02599  Biso   1.000  O
  O54      1.0000 0.27271  0.52663  0.02599  Biso   1.000  O
  O55      1.0000 0.65630  0.01569  0.64239  Biso   1.000  O
  O56      1.0000 0.65630  0.14303  0.51505  Biso   1.000  O
  O57      1.0000 0.07202  0.66426  0.44048  Biso   1.000  O
  O58      1.0000 0.12975  0.60653  0.49821  Biso   1.000  O
  O59      1.0000 0.79515  0.94112  0.16362  Biso   1.000  O
  O60      1.0000 0.73742  0.99885  0.10589  Biso   1.000  O
  O61      1.0000 0.79515  0.94112  0.44048  Biso   1.000  O
  O62      1.0000 0.73742  0.99885  0.49821  Biso   1.000  O
  O63      1.0000 0.07202  0.66426  0.16362  Biso   1.000  O
  O64      1.0000 0.12975  0.60653  0.10589  Biso   1.000  O
  O65      1.0000 0.07202  0.94112  0.16362  Biso   1.000  O
  O66      1.0000 0.12975  0.99885  0.10589  Biso   1.000  O
  O67      1.0000 0.79515  0.66426  0.44048  Biso   1.000  O
  O68      1.0000 0.73742  0.60653  0.49821  Biso   1.000  O
  O69      1.0000 0.29333  0.44173  0.66423  Biso   1.000  O
  O70      1.0000 0.23560  0.49946  0.60650  Biso   1.000  O
  O71      1.0000 0.57019  0.16487  0.94109  Biso   1.000  O
  O72      1.0000 0.62792  0.10714  0.99882  Biso   1.000  O
  O73      1.0000 0.57019  0.44173  0.66423  Biso   1.000  O
  O74      1.0000 0.62792  0.49946  0.60650  Biso   1.000  O
  O75      1.0000 0.29333  0.16487  0.94109  Biso   1.000  O
  O76      1.0000 0.23560  0.10714  0.99882  Biso   1.000  O
  O77      1.0000 0.29333  0.44173  0.94109  Biso   1.000  O
  O78      1.0000 0.23560  0.49946  0.99882  Biso   1.000  O
  O79      1.0000 0.57019  0.16487  0.66423  Biso   1.000  O
  O80      1.0000 0.62792  0.10714  0.60650  Biso   1.000  O
  O81      1.0000 0.93358  0.80269  0.30205  Biso   1.000  O
  O82      1.0000 0.43176  0.30330  0.80266  Biso   1.000  O
  O83      1.0000 0.98900  0.68679  0.47843  Biso   1.000  O
  O84      1.0000 0.10997  0.68679  0.35746  Biso   1.000  O
  O85      1.0000 0.81769  0.85810  0.18615  Biso   1.000  O
  O86      1.0000 0.81769  0.97907  0.18615  Biso   1.000  O
  O87      1.0000 0.81769  0.97907  0.35746  Biso   1.000  O
  O88      1.0000 0.81769  0.85810  0.47843  Biso   1.000  O
  O89      1.0000 0.98900  0.68679  0.18615  Biso   1.000  O
  O90      1.0000 0.10997  0.68679  0.18615  Biso   1.000  O
  O91      1.0000 0.10997  0.85810  0.18615  Biso   1.000  O
  O92      1.0000 0.98900  0.97907  0.18615  Biso   1.000  O
  O93      1.0000 0.81769  0.68679  0.35746  Biso   1.000  O
  O94      1.0000 0.81769  0.68679  0.47843  Biso   1.000  O
  O95      1.0000 0.37635  0.41920  0.62627  Biso   1.000  O
  O96      1.0000 0.25538  0.41920  0.74724  Biso   1.000  O
  O97      1.0000 0.54766  0.12691  0.91856  Biso   1.000  O
  O98      1.0000 0.54766  0.24789  0.91856  Biso   1.000  O
  O99      1.0000 0.54766  0.41920  0.74724  Biso   1.000  O
  O100     1.0000 0.54766  0.41920  0.62627  Biso   1.000  O
  O101     1.0000 0.37635  0.12691  0.91856  Biso   1.000  O
  O102     1.0000 0.25538  0.24789  0.91856  Biso   1.000  O
  O103     1.0000 0.25538  0.41920  0.91856  Biso   1.000  O
  O104     1.0000 0.37635  0.41920  0.91856  Biso   1.000  O
  O105     1.0000 0.54766  0.12691  0.74724  Biso   1.000  O
  O106     1.0000 0.54766  0.24789  0.62627  Biso   1.000  O
