data_image0
_cell_length_a       18.3083
_cell_length_b       18.3083
_cell_length_c       18.3083
_cell_angle_alpha    60
_cell_angle_beta     60
_cell_angle_gamma    60

_symmetry_space_group_name_H-M    "P 1"
_symmetry_int_tables_number       1

loop_
  _symmetry_equiv_pos_as_xyz
  'x, y, z'

loop_
  _atom_site_label
  _atom_site_occupancy
  _atom_site_fract_x
  _atom_site_fract_y
  _atom_site_fract_z
  _atom_site_thermal_displace_type
  _atom_site_B_iso_or_equiv
  _atom_site_type_symbol
  C1       1.0000 0.29342  0.29341  0.11976  Biso   1.000  C
  C2       1.0000 0.29342  0.29341  0.29341  Biso   1.000  C
  C3       1.0000 0.11977  0.29341  0.29341  Biso   1.000  C
  C4       1.0000 0.29342  0.11976  0.29341  Biso   1.000  C
  C5       1.0000 0.70658  0.70659  0.88024  Biso   1.000  C
  C6       1.0000 0.70658  0.70659  0.70659  Biso   1.000  C
  C7       1.0000 0.70658  0.88024  0.70659  Biso   1.000  C
  C8       1.0000 0.88023  0.70659  0.70659  Biso   1.000  C
  C9       1.0000 0.45480  0.45480  0.93480  Biso   1.000  C
  C10      1.0000 0.45480  0.45480  0.15560  Biso   1.000  C
  C11      1.0000 0.93480  0.15560  0.45480  Biso   1.000  C
  C12      1.0000 0.15560  0.93480  0.45480  Biso   1.000  C
  C13      1.0000 0.45480  0.93480  0.15560  Biso   1.000  C
  C14      1.0000 0.45480  0.15560  0.93480  Biso   1.000  C
  C15      1.0000 0.93480  0.45480  0.45480  Biso   1.000  C
  C16      1.0000 0.15560  0.45480  0.45480  Biso   1.000  C
  C17      1.0000 0.45480  0.15560  0.45480  Biso   1.000  C
  C18      1.0000 0.45480  0.93480  0.45480  Biso   1.000  C
  C19      1.0000 0.93480  0.45480  0.15560  Biso   1.000  C
  C20      1.0000 0.15560  0.45480  0.93480  Biso   1.000  C
  C21      1.0000 0.54520  0.54520  0.06520  Biso   1.000  C
  C22      1.0000 0.54520  0.54520  0.84440  Biso   1.000  C
  C23      1.0000 0.84440  0.06520  0.54520  Biso   1.000  C
  C24      1.0000 0.06520  0.84440  0.54520  Biso   1.000  C
  C25      1.0000 0.06520  0.54520  0.84440  Biso   1.000  C
  C26      1.0000 0.84440  0.54520  0.06520  Biso   1.000  C
  C27      1.0000 0.54520  0.06520  0.54520  Biso   1.000  C
  C28      1.0000 0.54520  0.84440  0.54520  Biso   1.000  C
  C29      1.0000 0.84440  0.54520  0.54520  Biso   1.000  C
  C30      1.0000 0.06520  0.54520  0.54520  Biso   1.000  C
  C31      1.0000 0.54520  0.06520  0.84440  Biso   1.000  C
  C32      1.0000 0.54520  0.84440  0.06520  Biso   1.000  C
  C33      1.0000 0.47317  0.47317  0.96131  Biso   1.000  C
  C34      1.0000 0.47317  0.47317  0.09235  Biso   1.000  C
  C35      1.0000 0.96131  0.09235  0.47317  Biso   1.000  C
  C36      1.0000 0.09235  0.96131  0.47317  Biso   1.000  C
  C37      1.0000 0.47317  0.96131  0.09235  Biso   1.000  C
  C38      1.0000 0.47317  0.09235  0.96131  Biso   1.000  C
  C39      1.0000 0.96131  0.47317  0.47317  Biso   1.000  C
  C40      1.0000 0.09235  0.47317  0.47317  Biso   1.000  C
  C41      1.0000 0.47317  0.09235  0.47317  Biso   1.000  C
  C42      1.0000 0.47317  0.96131  0.47317  Biso   1.000  C
  C43      1.0000 0.96131  0.47317  0.09235  Biso   1.000  C
  C44      1.0000 0.09235  0.47317  0.96131  Biso   1.000  C
  C45      1.0000 0.52683  0.52683  0.03869  Biso   1.000  C
  C46      1.0000 0.52683  0.52683  0.90765  Biso   1.000  C
  C47      1.0000 0.90765  0.03869  0.52683  Biso   1.000  C
  C48      1.0000 0.03869  0.90765  0.52683  Biso   1.000  C
  C49      1.0000 0.03869  0.52683  0.90765  Biso   1.000  C
  C50      1.0000 0.90765  0.52683  0.03869  Biso   1.000  C
  C51      1.0000 0.52683  0.03869  0.52683  Biso   1.000  C
  C52      1.0000 0.52683  0.90765  0.52683  Biso   1.000  C
  C53      1.0000 0.90765  0.52683  0.52683  Biso   1.000  C
  C54      1.0000 0.03869  0.52683  0.52683  Biso   1.000  C
  C55      1.0000 0.52683  0.03869  0.90765  Biso   1.000  C
  C56      1.0000 0.52683  0.90765  0.03869  Biso   1.000  C
  C57      1.0000 0.38843  0.38843  0.11157  Biso   1.000  C
  C58      1.0000 0.44641  0.44641  0.05359  Biso   1.000  C
  C59      1.0000 0.11157  0.11157  0.38843  Biso   1.000  C
  C60      1.0000 0.05359  0.05359  0.44641  Biso   1.000  C
  C61      1.0000 0.38843  0.11157  0.11157  Biso   1.000  C
  C62      1.0000 0.44641  0.05359  0.05359  Biso   1.000  C
  C63      1.0000 0.11157  0.38843  0.38843  Biso   1.000  C
  C64      1.0000 0.05359  0.44641  0.44641  Biso   1.000  C
  C65      1.0000 0.38843  0.11157  0.38843  Biso   1.000  C
  C66      1.0000 0.44641  0.05359  0.44641  Biso   1.000  C
  C67      1.0000 0.11157  0.38843  0.11157  Biso   1.000  C
  C68      1.0000 0.05359  0.44641  0.05359  Biso   1.000  C
  C69      1.0000 0.61157  0.61157  0.88843  Biso   1.000  C
  C70      1.0000 0.55359  0.55359  0.94641  Biso   1.000  C
  C71      1.0000 0.88843  0.88843  0.61157  Biso   1.000  C
  C72      1.0000 0.94641  0.94641  0.55359  Biso   1.000  C
  C73      1.0000 0.88843  0.61157  0.88843  Biso   1.000  C
  C74      1.0000 0.94641  0.55359  0.94641  Biso   1.000  C
  C75      1.0000 0.61157  0.88843  0.61157  Biso   1.000  C
  C76      1.0000 0.55359  0.94641  0.55359  Biso   1.000  C
  C77      1.0000 0.88843  0.61157  0.61157  Biso   1.000  C
  C78      1.0000 0.94641  0.55359  0.55359  Biso   1.000  C
  C79      1.0000 0.61157  0.88843  0.88843  Biso   1.000  C
  C80      1.0000 0.55359  0.94641  0.94641  Biso   1.000  C
  C81      1.0000 0.25000  0.25000  0.25000  Biso   1.000  C
  C82      1.0000 0.75000  0.75000  0.75000  Biso   1.000  C
  C83      1.0000 0.36629  0.36629  0.07237  Biso   1.000  C
  C84      1.0000 0.36629  0.36629  0.19505  Biso   1.000  C
  C85      1.0000 0.07237  0.19505  0.36629  Biso   1.000  C
  C86      1.0000 0.19505  0.07237  0.36629  Biso   1.000  C
  C87      1.0000 0.36629  0.07237  0.19505  Biso   1.000  C
  C88      1.0000 0.36629  0.19505  0.07237  Biso   1.000  C
  C89      1.0000 0.07237  0.36629  0.36629  Biso   1.000  C
  C90      1.0000 0.19505  0.36629  0.36629  Biso   1.000  C
  C91      1.0000 0.36629  0.19505  0.36629  Biso   1.000  C
  C92      1.0000 0.36629  0.07237  0.36629  Biso   1.000  C
  C93      1.0000 0.07237  0.36629  0.19505  Biso   1.000  C
  C94      1.0000 0.19505  0.36629  0.07237  Biso   1.000  C
  C95      1.0000 0.63371  0.63371  0.92763  Biso   1.000  C
  C96      1.0000 0.63371  0.63371  0.80495  Biso   1.000  C
  C97      1.0000 0.80495  0.92763  0.63371  Biso   1.000  C
  C98      1.0000 0.92763  0.80495  0.63371  Biso   1.000  C
  C99      1.0000 0.92763  0.63371  0.80495  Biso   1.000  C
  C100     1.0000 0.80495  0.63371  0.92763  Biso   1.000  C
  C101     1.0000 0.63371  0.92763  0.63371  Biso   1.000  C
  C102     1.0000 0.63371  0.80495  0.63371  Biso   1.000  C
  C103     1.0000 0.80495  0.63371  0.63371  Biso   1.000  C
  C104     1.0000 0.92763  0.63371  0.63371  Biso   1.000  C
  C105     1.0000 0.63371  0.92763  0.80495  Biso   1.000  C
  C106     1.0000 0.63371  0.80495  0.92763  Biso   1.000  C
  O1       1.0000 0.79591  0.86739  0.38104  Biso   1.000  O
  O2       1.0000 0.96749  0.86739  0.20946  Biso   1.000  O
  O3       1.0000 0.79591  0.86739  0.20946  Biso   1.000  O
  O4       1.0000 0.79591  0.03897  0.20946  Biso   1.000  O
  O5       1.0000 0.40876  0.44416  0.61465  Biso   1.000  O
  O6       1.0000 0.23718  0.44416  0.78622  Biso   1.000  O
  O7       1.0000 0.40876  0.27258  0.78622  Biso   1.000  O
  O8       1.0000 0.40876  0.44416  0.78622  Biso   1.000  O
  O9       1.0000 0.63701  0.70849  0.56353  Biso   1.000  O
  O10      1.0000 0.14999  0.00269  0.05056  Biso   1.000  O
  O11      1.0000 0.63701  0.70849  0.34475  Biso   1.000  O
  O12      1.0000 0.93121  0.22147  0.05056  Biso   1.000  O
  O13      1.0000 0.63701  0.22147  0.05056  Biso   1.000  O
  O14      1.0000 0.93121  0.70849  0.56353  Biso   1.000  O
  O15      1.0000 0.63701  0.00269  0.05056  Biso   1.000  O
  O16      1.0000 0.14999  0.70849  0.34475  Biso   1.000  O
  O17      1.0000 0.14999  0.70849  0.05056  Biso   1.000  O
  O18      1.0000 0.63701  0.22147  0.34475  Biso   1.000  O
  O19      1.0000 0.93121  0.70849  0.05056  Biso   1.000  O
  O20      1.0000 0.63701  0.00269  0.56353  Biso   1.000  O
  O21      1.0000 0.56766  0.30886  0.43215  Biso   1.000  O
  O22      1.0000 0.05468  0.60306  0.94512  Biso   1.000  O
  O23      1.0000 0.56766  0.09008  0.65093  Biso   1.000  O
  O24      1.0000 0.27346  0.60306  0.94512  Biso   1.000  O
  O25      1.0000 0.56766  0.30886  0.94512  Biso   1.000  O
  O26      1.0000 0.27346  0.60306  0.43215  Biso   1.000  O
  O27      1.0000 0.56766  0.09008  0.94512  Biso   1.000  O
  O28      1.0000 0.05468  0.60306  0.65093  Biso   1.000  O
  O29      1.0000 0.05468  0.30886  0.94512  Biso   1.000  O
  O30      1.0000 0.56766  0.60306  0.65093  Biso   1.000  O
  O31      1.0000 0.27346  0.09008  0.94512  Biso   1.000  O
  O32      1.0000 0.56766  0.60306  0.43215  Biso   1.000  O
  O33      1.0000 0.61887  0.69035  0.53717  Biso   1.000  O
  O34      1.0000 0.12362  0.06533  0.03242  Biso   1.000  O
  O35      1.0000 0.61887  0.69035  0.40739  Biso   1.000  O
  O36      1.0000 0.99385  0.19510  0.03242  Biso   1.000  O
  O37      1.0000 0.61887  0.19510  0.03242  Biso   1.000  O
  O38      1.0000 0.99385  0.69035  0.53717  Biso   1.000  O
  O39      1.0000 0.61887  0.06533  0.03242  Biso   1.000  O
  O40      1.0000 0.12362  0.69035  0.40739  Biso   1.000  O
  O41      1.0000 0.12362  0.69035  0.03242  Biso   1.000  O
  O42      1.0000 0.61887  0.19510  0.40739  Biso   1.000  O
  O43      1.0000 0.99385  0.69035  0.03242  Biso   1.000  O
  O44      1.0000 0.61887  0.06533  0.53717  Biso   1.000  O
  O45      1.0000 0.58579  0.24622  0.45851  Biso   1.000  O
  O46      1.0000 0.08105  0.62119  0.96326  Biso   1.000  O
  O47      1.0000 0.58579  0.11645  0.58829  Biso   1.000  O
  O48      1.0000 0.21082  0.62119  0.96326  Biso   1.000  O
  O49      1.0000 0.58579  0.24622  0.96326  Biso   1.000  O
  O50      1.0000 0.21082  0.62119  0.45851  Biso   1.000  O
  O51      1.0000 0.58579  0.11645  0.96326  Biso   1.000  O
  O52      1.0000 0.08105  0.62119  0.58829  Biso   1.000  O
  O53      1.0000 0.08105  0.24622  0.96326  Biso   1.000  O
  O54      1.0000 0.58579  0.62119  0.58829  Biso   1.000  O
  O55      1.0000 0.21082  0.11645  0.96326  Biso   1.000  O
  O56      1.0000 0.58579  0.62119  0.45851  Biso   1.000  O
  O57      1.0000 0.64555  0.71703  0.44560  Biso   1.000  O
  O58      1.0000 0.70290  0.77438  0.38825  Biso   1.000  O
  O59      1.0000 0.03205  0.10353  0.05910  Biso   1.000  O
  O60      1.0000 0.97471  0.04619  0.11645  Biso   1.000  O
  O61      1.0000 0.64555  0.10353  0.05910  Biso   1.000  O
  O62      1.0000 0.70290  0.04619  0.11645  Biso   1.000  O
  O63      1.0000 0.03205  0.71703  0.44560  Biso   1.000  O
  O64      1.0000 0.97471  0.77438  0.38825  Biso   1.000  O
  O65      1.0000 0.03205  0.71703  0.05910  Biso   1.000  O
  O66      1.0000 0.97471  0.77438  0.11645  Biso   1.000  O
  O67      1.0000 0.64555  0.10353  0.44560  Biso   1.000  O
  O68      1.0000 0.70290  0.04619  0.38825  Biso   1.000  O
  O69      1.0000 0.55911  0.20801  0.55008  Biso   1.000  O
  O70      1.0000 0.50177  0.26536  0.60743  Biso   1.000  O
  O71      1.0000 0.17262  0.59451  0.93658  Biso   1.000  O
  O72      1.0000 0.22996  0.53717  0.87923  Biso   1.000  O
  O73      1.0000 0.55911  0.20801  0.93658  Biso   1.000  O
  O74      1.0000 0.50177  0.26536  0.87923  Biso   1.000  O
  O75      1.0000 0.17262  0.59451  0.55008  Biso   1.000  O
  O76      1.0000 0.22996  0.53717  0.60743  Biso   1.000  O
  O77      1.0000 0.17262  0.20801  0.93658  Biso   1.000  O
  O78      1.0000 0.22996  0.26536  0.87923  Biso   1.000  O
  O79      1.0000 0.55911  0.59451  0.55008  Biso   1.000  O
  O80      1.0000 0.50177  0.53717  0.60743  Biso   1.000  O
  O81      1.0000 0.83880  0.91028  0.25235  Biso   1.000  O
  O82      1.0000 0.36587  0.40126  0.74333  Biso   1.000  O
  O83      1.0000 0.72455  0.79603  0.42988  Biso   1.000  O
  O84      1.0000 0.01633  0.96126  0.13810  Biso   1.000  O
  O85      1.0000 0.72455  0.79603  0.30333  Biso   1.000  O
  O86      1.0000 0.88978  0.08781  0.13810  Biso   1.000  O
  O87      1.0000 0.72455  0.08781  0.13810  Biso   1.000  O
  O88      1.0000 0.88978  0.79603  0.42988  Biso   1.000  O
  O89      1.0000 0.72455  0.96126  0.13810  Biso   1.000  O
  O90      1.0000 0.01633  0.79603  0.30333  Biso   1.000  O
  O91      1.0000 0.01633  0.79603  0.13810  Biso   1.000  O
  O92      1.0000 0.72455  0.08781  0.30333  Biso   1.000  O
  O93      1.0000 0.88978  0.79603  0.13810  Biso   1.000  O
  O94      1.0000 0.72455  0.96126  0.42988  Biso   1.000  O
  O95      1.0000 0.48012  0.35029  0.56580  Biso   1.000  O
  O96      1.0000 0.18834  0.51551  0.85758  Biso   1.000  O
  O97      1.0000 0.48012  0.22373  0.69236  Biso   1.000  O
  O98      1.0000 0.31489  0.51551  0.85758  Biso   1.000  O
  O99      1.0000 0.48012  0.35029  0.85758  Biso   1.000  O
  O100     1.0000 0.31489  0.51551  0.56580  Biso   1.000  O
  O101     1.0000 0.48012  0.22373  0.85758  Biso   1.000  O
  O102     1.0000 0.18834  0.51551  0.69236  Biso   1.000  O
  O103     1.0000 0.18834  0.35029  0.85758  Biso   1.000  O
  O104     1.0000 0.48012  0.51551  0.69236  Biso   1.000  O
  O105     1.0000 0.31489  0.22373  0.85758  Biso   1.000  O
  O106     1.0000 0.48012  0.51551  0.56580  Biso   1.000  O
