data_image0
_cell_length_a       18.2455
_cell_length_b       18.2455
_cell_length_c       18.2455
_cell_angle_alpha    60
_cell_angle_beta     60
_cell_angle_gamma    60

_symmetry_space_group_name_H-M    "P 1"
_symmetry_int_tables_number       1

loop_
  _symmetry_equiv_pos_as_xyz
  'x, y, z'

loop_
  _atom_site_label
  _atom_site_occupancy
  _atom_site_fract_x
  _atom_site_fract_y
  _atom_site_fract_z
  _atom_site_thermal_displace_type
  _atom_site_B_iso_or_equiv
  _atom_site_type_symbol
  Zn1      1.0000 0.29354  0.29354  0.11938  Biso   1.000  Zn
  Zn2      1.0000 0.29354  0.29354  0.29354  Biso   1.000  Zn
  Zn3      1.0000 0.11938  0.29354  0.29354  Biso   1.000  Zn
  Zn4      1.0000 0.29354  0.11938  0.29354  Biso   1.000  Zn
  Zn5      1.0000 0.70646  0.70646  0.88062  Biso   1.000  Zn
  Zn6      1.0000 0.70646  0.70646  0.70646  Biso   1.000  Zn
  Zn7      1.0000 0.70646  0.88062  0.70646  Biso   1.000  Zn
  Zn8      1.0000 0.88062  0.70646  0.70646  Biso   1.000  Zn
  H1       1.0000 0.45580  0.45580  0.93620  Biso   1.000  H
  H2       1.0000 0.45580  0.45580  0.15220  Biso   1.000  H
  H3       1.0000 0.93620  0.15220  0.45580  Biso   1.000  H
  H4       1.0000 0.15220  0.93620  0.45580  Biso   1.000  H
  H5       1.0000 0.45580  0.93620  0.15220  Biso   1.000  H
  H6       1.0000 0.45580  0.15220  0.93620  Biso   1.000  H
  H7       1.0000 0.93620  0.45580  0.45580  Biso   1.000  H
  H8       1.0000 0.15220  0.45580  0.45580  Biso   1.000  H
  H9       1.0000 0.45580  0.15220  0.45580  Biso   1.000  H
  H10      1.0000 0.45580  0.93620  0.45580  Biso   1.000  H
  H11      1.0000 0.93620  0.45580  0.15220  Biso   1.000  H
  H12      1.0000 0.15220  0.45580  0.93620  Biso   1.000  H
  H13      1.0000 0.54420  0.54420  0.06380  Biso   1.000  H
  H14      1.0000 0.54420  0.54420  0.84780  Biso   1.000  H
  H15      1.0000 0.84780  0.06380  0.54420  Biso   1.000  H
  H16      1.0000 0.06380  0.84780  0.54420  Biso   1.000  H
  H17      1.0000 0.06380  0.54420  0.84780  Biso   1.000  H
  H18      1.0000 0.84780  0.54420  0.06380  Biso   1.000  H
  H19      1.0000 0.54420  0.06380  0.54420  Biso   1.000  H
  H20      1.0000 0.54420  0.84780  0.54420  Biso   1.000  H
  H21      1.0000 0.84780  0.54420  0.54420  Biso   1.000  H
  H22      1.0000 0.06380  0.54420  0.54420  Biso   1.000  H
  H23      1.0000 0.54420  0.06380  0.84780  Biso   1.000  H
  H24      1.0000 0.54420  0.84780  0.06380  Biso   1.000  H
  C1       1.0000 0.47345  0.47345  0.96303  Biso   1.000  C
  C2       1.0000 0.47345  0.47345  0.09007  Biso   1.000  C
  C3       1.0000 0.96303  0.09007  0.47345  Biso   1.000  C
  C4       1.0000 0.09007  0.96303  0.47345  Biso   1.000  C
  C5       1.0000 0.47345  0.96303  0.09007  Biso   1.000  C
  C6       1.0000 0.47345  0.09007  0.96303  Biso   1.000  C
  C7       1.0000 0.96303  0.47345  0.47345  Biso   1.000  C
  C8       1.0000 0.09007  0.47345  0.47345  Biso   1.000  C
  C9       1.0000 0.47345  0.09007  0.47345  Biso   1.000  C
  C10      1.0000 0.47345  0.96303  0.47345  Biso   1.000  C
  C11      1.0000 0.96303  0.47345  0.09007  Biso   1.000  C
  C12      1.0000 0.09007  0.47345  0.96303  Biso   1.000  C
  C13      1.0000 0.52655  0.52655  0.03697  Biso   1.000  C
  C14      1.0000 0.52655  0.52655  0.90993  Biso   1.000  C
  C15      1.0000 0.90993  0.03697  0.52655  Biso   1.000  C
  C16      1.0000 0.03697  0.90993  0.52655  Biso   1.000  C
  C17      1.0000 0.03697  0.52655  0.90993  Biso   1.000  C
  C18      1.0000 0.90993  0.52655  0.03697  Biso   1.000  C
  C19      1.0000 0.52655  0.03697  0.52655  Biso   1.000  C
  C20      1.0000 0.52655  0.90993  0.52655  Biso   1.000  C
  C21      1.0000 0.90993  0.52655  0.52655  Biso   1.000  C
  C22      1.0000 0.03697  0.52655  0.52655  Biso   1.000  C
  C23      1.0000 0.52655  0.03697  0.90993  Biso   1.000  C
  C24      1.0000 0.52655  0.90993  0.03697  Biso   1.000  C
  C25      1.0000 0.38857  0.38857  0.11143  Biso   1.000  C
  C26      1.0000 0.44620  0.44620  0.05380  Biso   1.000  C
  C27      1.0000 0.11143  0.11143  0.38857  Biso   1.000  C
  C28      1.0000 0.05380  0.05380  0.44620  Biso   1.000  C
  C29      1.0000 0.38857  0.11143  0.11143  Biso   1.000  C
  C30      1.0000 0.44620  0.05380  0.05380  Biso   1.000  C
  C31      1.0000 0.11143  0.38857  0.38857  Biso   1.000  C
  C32      1.0000 0.05380  0.44620  0.44620  Biso   1.000  C
  C33      1.0000 0.38857  0.11143  0.38857  Biso   1.000  C
  C34      1.0000 0.44620  0.05380  0.44620  Biso   1.000  C
  C35      1.0000 0.11143  0.38857  0.11143  Biso   1.000  C
  C36      1.0000 0.05380  0.44620  0.05380  Biso   1.000  C
  C37      1.0000 0.61143  0.61143  0.88857  Biso   1.000  C
  C38      1.0000 0.55380  0.55380  0.94620  Biso   1.000  C
  C39      1.0000 0.88857  0.88857  0.61143  Biso   1.000  C
  C40      1.0000 0.94620  0.94620  0.55380  Biso   1.000  C
  C41      1.0000 0.88857  0.61143  0.88857  Biso   1.000  C
  C42      1.0000 0.94620  0.55380  0.94620  Biso   1.000  C
  C43      1.0000 0.61143  0.88857  0.61143  Biso   1.000  C
  C44      1.0000 0.55380  0.94620  0.55380  Biso   1.000  C
  C45      1.0000 0.88857  0.61143  0.61143  Biso   1.000  C
  C46      1.0000 0.94620  0.55380  0.55380  Biso   1.000  C
  C47      1.0000 0.61143  0.88857  0.88857  Biso   1.000  C
  C48      1.0000 0.55380  0.94620  0.94620  Biso   1.000  C
  O1       1.0000 0.25000  0.25000  0.25000  Biso   1.000  O
  O2       1.0000 0.75000  0.75000  0.75000  Biso   1.000  O
  O3       1.0000 0.36603  0.36603  0.07311  Biso   1.000  O
  O4       1.0000 0.36603  0.36603  0.19483  Biso   1.000  O
  O5       1.0000 0.07311  0.19483  0.36603  Biso   1.000  O
  O6       1.0000 0.19483  0.07311  0.36603  Biso   1.000  O
  O7       1.0000 0.36603  0.07311  0.19483  Biso   1.000  O
  O8       1.0000 0.36603  0.19483  0.07311  Biso   1.000  O
  O9       1.0000 0.07311  0.36603  0.36603  Biso   1.000  O
  O10      1.0000 0.19483  0.36603  0.36603  Biso   1.000  O
  O11      1.0000 0.36603  0.19483  0.36603  Biso   1.000  O
  O12      1.0000 0.36603  0.07311  0.36603  Biso   1.000  O
  O13      1.0000 0.07311  0.36603  0.19483  Biso   1.000  O
  O14      1.0000 0.19483  0.36603  0.07311  Biso   1.000  O
  O15      1.0000 0.63397  0.63397  0.92689  Biso   1.000  O
  O16      1.0000 0.63397  0.63397  0.80517  Biso   1.000  O
  O17      1.0000 0.80517  0.92689  0.63397  Biso   1.000  O
  O18      1.0000 0.92689  0.80517  0.63397  Biso   1.000  O
  O19      1.0000 0.92689  0.63397  0.80517  Biso   1.000  O
  O20      1.0000 0.80517  0.63397  0.92689  Biso   1.000  O
  O21      1.0000 0.63397  0.92689  0.63397  Biso   1.000  O
  O22      1.0000 0.63397  0.80517  0.63397  Biso   1.000  O
  O23      1.0000 0.80517  0.63397  0.63397  Biso   1.000  O
  O24      1.0000 0.92689  0.63397  0.63397  Biso   1.000  O
  O25      1.0000 0.63397  0.92689  0.80517  Biso   1.000  O
  O26      1.0000 0.63397  0.80517  0.92689  Biso   1.000  O
  Zn9      1.0000 0.07768  0.58631  0.58718  Biso   1.000  Zn
  Zn10     1.0000 0.48949  0.17439  0.99918  Biso   1.000  Zn
  Zn11     1.0000 0.48949  0.99939  0.99918  Biso   1.000  Zn
  Zn12     1.0000 0.07768  0.41131  0.58718  Biso   1.000  Zn
  Zn13     1.0000 0.07723  0.58665  0.41195  Biso   1.000  Zn
  Zn14     1.0000 0.90229  0.58646  0.58728  Biso   1.000  Zn
  Zn15     1.0000 0.48994  0.99905  0.17441  Biso   1.000  Zn
  Zn16     1.0000 0.66488  0.99924  0.99908  Biso   1.000  Zn
  H25      1.0000 0.24025  0.23223  0.44350  Biso   1.000  H
  H26      1.0000 0.23457  0.44653  0.23163  Biso   1.000  H
  H27      1.0000 0.93617  0.23332  0.74745  Biso   1.000  H
  H28      1.0000 0.71916  0.44400  0.74975  Biso   1.000  H
  H29      1.0000 0.24106  0.44600  0.74495  Biso   1.000  H
  H30      1.0000 0.32692  0.83919  0.14286  Biso   1.000  H
  H31      1.0000 0.33260  0.83598  0.35473  Biso   1.000  H
  H32      1.0000 0.63100  0.84011  0.83891  Biso   1.000  H
  H33      1.0000 0.84800  0.83610  0.83660  Biso   1.000  H
  H34      1.0000 0.32610  0.35519  0.84141  Biso   1.000  H
  H35      1.0000 0.32692  0.35347  0.14286  Biso   1.000  H
  H36      1.0000 0.33260  0.13918  0.35473  Biso   1.000  H
  H37      1.0000 0.63100  0.35238  0.83891  Biso   1.000  H
  H38      1.0000 0.84801  0.14170  0.83660  Biso   1.000  H
  H39      1.0000 0.32611  0.13970  0.84141  Biso   1.000  H
  H40      1.0000 0.24025  0.74651  0.44350  Biso   1.000  H
  H41      1.0000 0.23457  0.74973  0.23163  Biso   1.000  H
  H42      1.0000 0.93617  0.74560  0.74745  Biso   1.000  H
  H43      1.0000 0.71917  0.74960  0.74975  Biso   1.000  H
  H44      1.0000 0.24107  0.23052  0.74495  Biso   1.000  H
  H45      1.0000 0.72005  0.74841  0.44560  Biso   1.000  H
  H46      1.0000 0.93408  0.74953  0.22933  Biso   1.000  H
  H47      1.0000 0.84712  0.83729  0.14075  Biso   1.000  H
  H48      1.0000 0.63309  0.83618  0.35703  Biso   1.000  H
  C49      1.0000 0.17204  0.40279  0.40707  Biso   1.000  C
  C50      1.0000 0.23167  0.34465  0.34582  Biso   1.000  C
  C51      1.0000 0.25806  0.25795  0.38125  Biso   1.000  C
  C52      1.0000 0.25398  0.38438  0.25765  Biso   1.000  C
  C53      1.0000 0.89277  0.40598  0.68440  Biso   1.000  C
  C54      1.0000 0.83864  0.34743  0.73975  Biso   1.000  C
  C55      1.0000 0.87393  0.25953  0.76547  Biso   1.000  C
  C56      1.0000 0.74688  0.38196  0.76727  Biso   1.000  C
  C57      1.0000 0.25697  0.38386  0.76507  Biso   1.000  C
  C58      1.0000 0.39513  0.90513  0.17929  Biso   1.000  C
  C59      1.0000 0.33550  0.84539  0.24054  Biso   1.000  C
  C60      1.0000 0.30911  0.82047  0.20511  Biso   1.000  C
  C61      1.0000 0.31319  0.81927  0.32871  Biso   1.000  C
  C62      1.0000 0.67440  0.90635  0.90196  Biso   1.000  C
  C63      1.0000 0.72853  0.84901  0.84661  Biso   1.000  C
  C64      1.0000 0.69324  0.82209  0.82089  Biso   1.000  C
  C65      1.0000 0.82028  0.81929  0.81909  Biso   1.000  C
  C66      1.0000 0.31019  0.32907  0.82129  Biso   1.000  C
  C67      1.0000 0.39514  0.18291  0.17929  Biso   1.000  C
  C68      1.0000 0.33550  0.24105  0.24054  Biso   1.000  C
  C69      1.0000 0.30911  0.32775  0.20511  Biso   1.000  C
  C70      1.0000 0.31319  0.20132  0.32871  Biso   1.000  C
  C71      1.0000 0.67440  0.17973  0.90196  Biso   1.000  C
  C72      1.0000 0.72853  0.23827  0.84661  Biso   1.000  C
  C73      1.0000 0.69324  0.32617  0.82089  Biso   1.000  C
  C74      1.0000 0.82029  0.20375  0.81909  Biso   1.000  C
  C75      1.0000 0.31020  0.20185  0.82129  Biso   1.000  C
  C76      1.0000 0.17204  0.68057  0.40707  Biso   1.000  C
  C77      1.0000 0.23167  0.74031  0.34582  Biso   1.000  C
  C78      1.0000 0.25806  0.76523  0.38125  Biso   1.000  C
  C79      1.0000 0.25398  0.76644  0.25765  Biso   1.000  C
  C80      1.0000 0.89277  0.67936  0.68440  Biso   1.000  C
  C81      1.0000 0.83864  0.73669  0.73975  Biso   1.000  C
  C82      1.0000 0.87393  0.76361  0.76547  Biso   1.000  C
  C83      1.0000 0.74688  0.76641  0.76727  Biso   1.000  C
  C84      1.0000 0.25698  0.25663  0.76507  Biso   1.000  C
  C85      1.0000 0.89946  0.68137  0.40027  Biso   1.000  C
  C86      1.0000 0.83722  0.73861  0.34802  Biso   1.000  C
  C87      1.0000 0.74727  0.76583  0.38355  Biso   1.000  C
  C88      1.0000 0.87194  0.76704  0.25645  Biso   1.000  C
  C89      1.0000 0.17055  0.40778  0.67639  Biso   1.000  C
  C90      1.0000 0.23059  0.34603  0.73985  Biso   1.000  C
  C91      1.0000 0.66771  0.90433  0.18609  Biso   1.000  C
  C92      1.0000 0.72995  0.84709  0.23833  Biso   1.000  C
  C93      1.0000 0.81990  0.81987  0.20281  Biso   1.000  C
  C94      1.0000 0.69523  0.81867  0.32991  Biso   1.000  C
  C95      1.0000 0.39662  0.17792  0.90996  Biso   1.000  C
  C96      1.0000 0.33658  0.23967  0.84651  Biso   1.000  C
  O27      1.0000 0.15192  0.48825  0.36114  Biso   1.000  O
  O28      1.0000 0.15323  0.35885  0.49134  Biso   1.000  O
  O29      1.0000 0.85285  0.48923  0.65788  Biso   1.000  O
  O30      1.0000 0.97913  0.36185  0.66188  Biso   1.000  O
  O31      1.0000 0.15143  0.49023  0.65908  Biso   1.000  O
  O32      1.0000 0.41525  0.92454  0.22522  Biso   1.000  O
  O33      1.0000 0.41394  0.92665  0.09502  Biso   1.000  O
  O34      1.0000 0.71432  0.92316  0.92848  Biso   1.000  O
  O35      1.0000 0.58804  0.92606  0.92448  Biso   1.000  O
  O36      1.0000 0.41574  0.22395  0.92728  Biso   1.000  O
  O37      1.0000 0.41525  0.09746  0.22522  Biso   1.000  O
  O38      1.0000 0.41394  0.22685  0.09502  Biso   1.000  O
  O39      1.0000 0.71432  0.09647  0.92848  Biso   1.000  O
  O40      1.0000 0.58805  0.22385  0.92448  Biso   1.000  O
  O41      1.0000 0.41574  0.09547  0.92728  Biso   1.000  O
  O42      1.0000 0.15192  0.66116  0.36114  Biso   1.000  O
  O43      1.0000 0.15323  0.65905  0.49134  Biso   1.000  O
  O44      1.0000 0.85285  0.66255  0.65788  Biso   1.000  O
  O45      1.0000 0.97913  0.65964  0.66188  Biso   1.000  O
  O46      1.0000 0.15143  0.36175  0.65908  Biso   1.000  O
  O47      1.0000 0.03446  0.54247  0.54308  Biso   1.000  O
  O48      1.0000 0.98031  0.66016  0.36184  Biso   1.000  O
  O49      1.0000 0.85424  0.66246  0.48334  Biso   1.000  O
  O50      1.0000 0.53271  0.04323  0.04327  Biso   1.000  O
  O51      1.0000 0.58686  0.92554  0.22452  Biso   1.000  O
  O52      1.0000 0.71293  0.92325  0.10302  Biso   1.000  O
