data_image0
_cell_length_a       18.2455
_cell_length_b       18.2455
_cell_length_c       18.2455
_cell_angle_alpha    60
_cell_angle_beta     60
_cell_angle_gamma    60

_symmetry_space_group_name_H-M    "P 1"
_symmetry_int_tables_number       1

loop_
  _symmetry_equiv_pos_as_xyz
  'x, y, z'

loop_
  _atom_site_label
  _atom_site_occupancy
  _atom_site_fract_x
  _atom_site_fract_y
  _atom_site_fract_z
  _atom_site_thermal_displace_type
  _atom_site_B_iso_or_equiv
  _atom_site_type_symbol
  Zn1      1.0000 0.29354  0.29354  0.11938  Biso   1.000  Zn
  Zn2      1.0000 0.29354  0.29354  0.29354  Biso   1.000  Zn
  Zn3      1.0000 0.11938  0.29354  0.29354  Biso   1.000  Zn
  Zn4      1.0000 0.29354  0.11938  0.29354  Biso   1.000  Zn
  Zn5      1.0000 0.70646  0.70646  0.88062  Biso   1.000  Zn
  Zn6      1.0000 0.70646  0.70646  0.70646  Biso   1.000  Zn
  Zn7      1.0000 0.70646  0.88062  0.70646  Biso   1.000  Zn
  Zn8      1.0000 0.88062  0.70646  0.70646  Biso   1.000  Zn
  H1       1.0000 0.45580  0.45580  0.93620  Biso   1.000  H
  H2       1.0000 0.45580  0.45580  0.15220  Biso   1.000  H
  H3       1.0000 0.93620  0.15220  0.45580  Biso   1.000  H
  H4       1.0000 0.15220  0.93620  0.45580  Biso   1.000  H
  H5       1.0000 0.45580  0.93620  0.15220  Biso   1.000  H
  H6       1.0000 0.45580  0.15220  0.93620  Biso   1.000  H
  H7       1.0000 0.93620  0.45580  0.45580  Biso   1.000  H
  H8       1.0000 0.15220  0.45580  0.45580  Biso   1.000  H
  H9       1.0000 0.45580  0.15220  0.45580  Biso   1.000  H
  H10      1.0000 0.45580  0.93620  0.45580  Biso   1.000  H
  H11      1.0000 0.93620  0.45580  0.15220  Biso   1.000  H
  H12      1.0000 0.15220  0.45580  0.93620  Biso   1.000  H
  H13      1.0000 0.54420  0.54420  0.06380  Biso   1.000  H
  H14      1.0000 0.54420  0.54420  0.84780  Biso   1.000  H
  H15      1.0000 0.84780  0.06380  0.54420  Biso   1.000  H
  H16      1.0000 0.06380  0.84780  0.54420  Biso   1.000  H
  H17      1.0000 0.06380  0.54420  0.84780  Biso   1.000  H
  H18      1.0000 0.84780  0.54420  0.06380  Biso   1.000  H
  H19      1.0000 0.54420  0.06380  0.54420  Biso   1.000  H
  H20      1.0000 0.54420  0.84780  0.54420  Biso   1.000  H
  H21      1.0000 0.84780  0.54420  0.54420  Biso   1.000  H
  H22      1.0000 0.06380  0.54420  0.54420  Biso   1.000  H
  H23      1.0000 0.54420  0.06380  0.84780  Biso   1.000  H
  H24      1.0000 0.54420  0.84780  0.06380  Biso   1.000  H
  C1       1.0000 0.47345  0.47345  0.96303  Biso   1.000  C
  C2       1.0000 0.47345  0.47345  0.09007  Biso   1.000  C
  C3       1.0000 0.96303  0.09007  0.47345  Biso   1.000  C
  C4       1.0000 0.09007  0.96303  0.47345  Biso   1.000  C
  C5       1.0000 0.47345  0.96303  0.09007  Biso   1.000  C
  C6       1.0000 0.47345  0.09007  0.96303  Biso   1.000  C
  C7       1.0000 0.96303  0.47345  0.47345  Biso   1.000  C
  C8       1.0000 0.09007  0.47345  0.47345  Biso   1.000  C
  C9       1.0000 0.47345  0.09007  0.47345  Biso   1.000  C
  C10      1.0000 0.47345  0.96303  0.47345  Biso   1.000  C
  C11      1.0000 0.96303  0.47345  0.09007  Biso   1.000  C
  C12      1.0000 0.09007  0.47345  0.96303  Biso   1.000  C
  C13      1.0000 0.52655  0.52655  0.03697  Biso   1.000  C
  C14      1.0000 0.52655  0.52655  0.90993  Biso   1.000  C
  C15      1.0000 0.90993  0.03697  0.52655  Biso   1.000  C
  C16      1.0000 0.03697  0.90993  0.52655  Biso   1.000  C
  C17      1.0000 0.03697  0.52655  0.90993  Biso   1.000  C
  C18      1.0000 0.90993  0.52655  0.03697  Biso   1.000  C
  C19      1.0000 0.52655  0.03697  0.52655  Biso   1.000  C
  C20      1.0000 0.52655  0.90993  0.52655  Biso   1.000  C
  C21      1.0000 0.90993  0.52655  0.52655  Biso   1.000  C
  C22      1.0000 0.03697  0.52655  0.52655  Biso   1.000  C
  C23      1.0000 0.52655  0.03697  0.90993  Biso   1.000  C
  C24      1.0000 0.52655  0.90993  0.03697  Biso   1.000  C
  C25      1.0000 0.38857  0.38857  0.11143  Biso   1.000  C
  C26      1.0000 0.44620  0.44620  0.05380  Biso   1.000  C
  C27      1.0000 0.11143  0.11143  0.38857  Biso   1.000  C
  C28      1.0000 0.05380  0.05380  0.44620  Biso   1.000  C
  C29      1.0000 0.38857  0.11143  0.11143  Biso   1.000  C
  C30      1.0000 0.44620  0.05380  0.05380  Biso   1.000  C
  C31      1.0000 0.11143  0.38857  0.38857  Biso   1.000  C
  C32      1.0000 0.05380  0.44620  0.44620  Biso   1.000  C
  C33      1.0000 0.38857  0.11143  0.38857  Biso   1.000  C
  C34      1.0000 0.44620  0.05380  0.44620  Biso   1.000  C
  C35      1.0000 0.11143  0.38857  0.11143  Biso   1.000  C
  C36      1.0000 0.05380  0.44620  0.05380  Biso   1.000  C
  C37      1.0000 0.61143  0.61143  0.88857  Biso   1.000  C
  C38      1.0000 0.55380  0.55380  0.94620  Biso   1.000  C
  C39      1.0000 0.88857  0.88857  0.61143  Biso   1.000  C
  C40      1.0000 0.94620  0.94620  0.55380  Biso   1.000  C
  C41      1.0000 0.88857  0.61143  0.88857  Biso   1.000  C
  C42      1.0000 0.94620  0.55380  0.94620  Biso   1.000  C
  C43      1.0000 0.61143  0.88857  0.61143  Biso   1.000  C
  C44      1.0000 0.55380  0.94620  0.55380  Biso   1.000  C
  C45      1.0000 0.88857  0.61143  0.61143  Biso   1.000  C
  C46      1.0000 0.94620  0.55380  0.55380  Biso   1.000  C
  C47      1.0000 0.61143  0.88857  0.88857  Biso   1.000  C
  C48      1.0000 0.55380  0.94620  0.94620  Biso   1.000  C
  O1       1.0000 0.25000  0.25000  0.25000  Biso   1.000  O
  O2       1.0000 0.75000  0.75000  0.75000  Biso   1.000  O
  O3       1.0000 0.36603  0.36603  0.07311  Biso   1.000  O
  O4       1.0000 0.36603  0.36603  0.19483  Biso   1.000  O
  O5       1.0000 0.07311  0.19483  0.36603  Biso   1.000  O
  O6       1.0000 0.19483  0.07311  0.36603  Biso   1.000  O
  O7       1.0000 0.36603  0.07311  0.19483  Biso   1.000  O
  O8       1.0000 0.36603  0.19483  0.07311  Biso   1.000  O
  O9       1.0000 0.07311  0.36603  0.36603  Biso   1.000  O
  O10      1.0000 0.19483  0.36603  0.36603  Biso   1.000  O
  O11      1.0000 0.36603  0.19483  0.36603  Biso   1.000  O
  O12      1.0000 0.36603  0.07311  0.36603  Biso   1.000  O
  O13      1.0000 0.07311  0.36603  0.19483  Biso   1.000  O
  O14      1.0000 0.19483  0.36603  0.07311  Biso   1.000  O
  O15      1.0000 0.63397  0.63397  0.92689  Biso   1.000  O
  O16      1.0000 0.63397  0.63397  0.80517  Biso   1.000  O
  O17      1.0000 0.80517  0.92689  0.63397  Biso   1.000  O
  O18      1.0000 0.92689  0.80517  0.63397  Biso   1.000  O
  O19      1.0000 0.92689  0.63397  0.80517  Biso   1.000  O
  O20      1.0000 0.80517  0.63397  0.92689  Biso   1.000  O
  O21      1.0000 0.63397  0.92689  0.63397  Biso   1.000  O
  O22      1.0000 0.63397  0.80517  0.63397  Biso   1.000  O
  O23      1.0000 0.80517  0.63397  0.63397  Biso   1.000  O
  O24      1.0000 0.92689  0.63397  0.63397  Biso   1.000  O
  O25      1.0000 0.63397  0.92689  0.80517  Biso   1.000  O
  O26      1.0000 0.63397  0.80517  0.92689  Biso   1.000  O
  Zn9      1.0000 0.59481  0.07924  0.71971  Biso   1.000  Zn
  Zn10     1.0000 0.59481  0.25371  0.71971  Biso   1.000  Zn
  Zn11     1.0000 0.42034  0.25371  0.71971  Biso   1.000  Zn
  Zn12     1.0000 0.59481  0.25371  0.54524  Biso   1.000  Zn
  Zn13     1.0000 0.01374  0.66441  0.13041  Biso   1.000  Zn
  Zn14     1.0000 0.01374  0.83888  0.13041  Biso   1.000  Zn
  Zn15     1.0000 0.18821  0.66441  0.13041  Biso   1.000  Zn
  Zn16     1.0000 0.01374  0.66441  0.30488  Biso   1.000  Zn
  H25      1.0000 0.45620  0.89339  0.88193  Biso   1.000  H
  H26      1.0000 0.75703  0.41593  0.58110  Biso   1.000  H
  H27      1.0000 0.23449  0.11510  0.88193  Biso   1.000  H
  H28      1.0000 0.75703  0.41593  0.35939  Biso   1.000  H
  H29      1.0000 0.23449  0.41593  0.58110  Biso   1.000  H
  H30      1.0000 0.75703  0.11510  0.88193  Biso   1.000  H
  H31      1.0000 0.45620  0.41593  0.35939  Biso   1.000  H
  H32      1.0000 0.75703  0.89339  0.88193  Biso   1.000  H
  H33      1.0000 0.75703  0.11510  0.35939  Biso   1.000  H
  H34      1.0000 0.45620  0.41593  0.88193  Biso   1.000  H
  H35      1.0000 0.75703  0.89339  0.58110  Biso   1.000  H
  H36      1.0000 0.23449  0.41593  0.88193  Biso   1.000  H
  H37      1.0000 0.15235  0.50219  0.96819  Biso   1.000  H
  H38      1.0000 0.85152  0.02473  0.26902  Biso   1.000  H
  H39      1.0000 0.37406  0.50219  0.96819  Biso   1.000  H
  H40      1.0000 0.85152  0.80302  0.49073  Biso   1.000  H
  H41      1.0000 0.37406  0.50219  0.26902  Biso   1.000  H
  H42      1.0000 0.85152  0.02473  0.96819  Biso   1.000  H
  H43      1.0000 0.15235  0.50219  0.49073  Biso   1.000  H
  H44      1.0000 0.85152  0.80302  0.96819  Biso   1.000  H
  H45      1.0000 0.85152  0.50219  0.49073  Biso   1.000  H
  H46      1.0000 0.15235  0.02473  0.96819  Biso   1.000  H
  H47      1.0000 0.85152  0.50219  0.26902  Biso   1.000  H
  H48      1.0000 0.37406  0.80302  0.96819  Biso   1.000  H
  C49      1.0000 0.39258  0.92026  0.90031  Biso   1.000  C
  C50      1.0000 0.77541  0.43431  0.51748  Biso   1.000  C
  C51      1.0000 0.26136  0.05148  0.90031  Biso   1.000  C
  C52      1.0000 0.77541  0.43431  0.38626  Biso   1.000  C
  C53      1.0000 0.26136  0.43431  0.51748  Biso   1.000  C
  C54      1.0000 0.77541  0.05148  0.90031  Biso   1.000  C
  C55      1.0000 0.39258  0.43431  0.38626  Biso   1.000  C
  C56      1.0000 0.77541  0.92026  0.90031  Biso   1.000  C
  C57      1.0000 0.77541  0.05148  0.38626  Biso   1.000  C
  C58      1.0000 0.39258  0.43431  0.90031  Biso   1.000  C
  C59      1.0000 0.77541  0.92026  0.51748  Biso   1.000  C
  C60      1.0000 0.26136  0.43431  0.90031  Biso   1.000  C
  C61      1.0000 0.21597  0.48381  0.94981  Biso   1.000  C
  C62      1.0000 0.83314  0.99786  0.33264  Biso   1.000  C
  C63      1.0000 0.34719  0.48381  0.94981  Biso   1.000  C
  C64      1.0000 0.83314  0.86664  0.46386  Biso   1.000  C
  C65      1.0000 0.34719  0.48381  0.33264  Biso   1.000  C
  C66      1.0000 0.83314  0.99786  0.94981  Biso   1.000  C
  C67      1.0000 0.21597  0.48381  0.46386  Biso   1.000  C
  C68      1.0000 0.83314  0.86664  0.94981  Biso   1.000  C
  C69      1.0000 0.83314  0.48381  0.46386  Biso   1.000  C
  C70      1.0000 0.21597  0.99786  0.94981  Biso   1.000  C
  C71      1.0000 0.83314  0.48381  0.33264  Biso   1.000  C
  C72      1.0000 0.34719  0.86664  0.94981  Biso   1.000  C
  C73      1.0000 0.41210  0.07100  0.81518  Biso   1.000  C
  C74      1.0000 0.35410  0.01300  0.87318  Biso   1.000  C
  C75      1.0000 0.69028  0.34918  0.53700  Biso   1.000  C
  C76      1.0000 0.74828  0.40718  0.47900  Biso   1.000  C
  C77      1.0000 0.41210  0.34918  0.53700  Biso   1.000  C
  C78      1.0000 0.35410  0.40718  0.47900  Biso   1.000  C
  C79      1.0000 0.69028  0.07100  0.81518  Biso   1.000  C
  C80      1.0000 0.74828  0.01300  0.87318  Biso   1.000  C
  C81      1.0000 0.69028  0.07100  0.53700  Biso   1.000  C
  C82      1.0000 0.74828  0.01300  0.47900  Biso   1.000  C
  C83      1.0000 0.41210  0.34918  0.81518  Biso   1.000  C
  C84      1.0000 0.35410  0.40718  0.87318  Biso   1.000  C
  C85      1.0000 0.19645  0.56894  0.03494  Biso   1.000  C
  C86      1.0000 0.25445  0.51095  0.97694  Biso   1.000  C
  C87      1.0000 0.91827  0.84712  0.31312  Biso   1.000  C
  C88      1.0000 0.86028  0.90512  0.37112  Biso   1.000  C
  C89      1.0000 0.19645  0.56894  0.31312  Biso   1.000  C
  C90      1.0000 0.25445  0.51095  0.37112  Biso   1.000  C
  C91      1.0000 0.91827  0.84712  0.03494  Biso   1.000  C
  C92      1.0000 0.86028  0.90512  0.97694  Biso   1.000  C
  C93      1.0000 0.91827  0.56894  0.31312  Biso   1.000  C
  C94      1.0000 0.86028  0.51095  0.37112  Biso   1.000  C
  C95      1.0000 0.19645  0.84712  0.03494  Biso   1.000  C
  C96      1.0000 0.25445  0.90512  0.97694  Biso   1.000  C
  O27      1.0000 0.55119  0.21009  0.67609  Biso   1.000  O
  O28      1.0000 0.05736  0.70803  0.17403  Biso   1.000  O
  O29      1.0000 0.49593  0.03185  0.79284  Biso   1.000  O
  O30      1.0000 0.66794  0.32684  0.62083  Biso   1.000  O
  O31      1.0000 0.37295  0.15483  0.79284  Biso   1.000  O
  O32      1.0000 0.66794  0.32684  0.49785  Biso   1.000  O
  O33      1.0000 0.37295  0.32684  0.62083  Biso   1.000  O
  O34      1.0000 0.66794  0.15483  0.79284  Biso   1.000  O
  O35      1.0000 0.49593  0.32684  0.49785  Biso   1.000  O
  O36      1.0000 0.66794  0.03185  0.79284  Biso   1.000  O
  O37      1.0000 0.66794  0.15483  0.49785  Biso   1.000  O
  O38      1.0000 0.49593  0.32684  0.79284  Biso   1.000  O
  O39      1.0000 0.66794  0.03185  0.62083  Biso   1.000  O
  O40      1.0000 0.37295  0.32684  0.79284  Biso   1.000  O
  O41      1.0000 0.11262  0.59128  0.05728  Biso   1.000  O
  O42      1.0000 0.94062  0.88627  0.22929  Biso   1.000  O
  O43      1.0000 0.23560  0.59128  0.05728  Biso   1.000  O
  O44      1.0000 0.94062  0.76329  0.35227  Biso   1.000  O
  O45      1.0000 0.23560  0.59128  0.22929  Biso   1.000  O
  O46      1.0000 0.94061  0.88627  0.05728  Biso   1.000  O
  O47      1.0000 0.11262  0.59128  0.35227  Biso   1.000  O
  O48      1.0000 0.94062  0.76329  0.05728  Biso   1.000  O
  O49      1.0000 0.94062  0.59128  0.35227  Biso   1.000  O
  O50      1.0000 0.11262  0.88627  0.05728  Biso   1.000  O
  O51      1.0000 0.94062  0.59128  0.22929  Biso   1.000  O
  O52      1.0000 0.23560  0.76329  0.05728  Biso   1.000  O
