data_image0
_cell_length_a       18.2704
_cell_length_b       18.2704
_cell_length_c       18.2704
_cell_angle_alpha    60
_cell_angle_beta     60
_cell_angle_gamma    60

_symmetry_space_group_name_H-M    "P 1"
_symmetry_int_tables_number       1

loop_
  _symmetry_equiv_pos_as_xyz
  'x, y, z'

loop_
  _atom_site_label
  _atom_site_occupancy
  _atom_site_fract_x
  _atom_site_fract_y
  _atom_site_fract_z
  _atom_site_thermal_displace_type
  _atom_site_B_iso_or_equiv
  _atom_site_type_symbol
  Zn1      1.0000 0.29350  0.29349  0.11952  Biso   1.000  Zn
  Zn2      1.0000 0.29350  0.29349  0.29349  Biso   1.000  Zn
  Zn3      1.0000 0.11953  0.29349  0.29349  Biso   1.000  Zn
  Zn4      1.0000 0.29350  0.11952  0.29349  Biso   1.000  Zn
  Zn5      1.0000 0.70650  0.70651  0.88048  Biso   1.000  Zn
  Zn6      1.0000 0.70650  0.70651  0.70651  Biso   1.000  Zn
  Zn7      1.0000 0.70650  0.88048  0.70651  Biso   1.000  Zn
  Zn8      1.0000 0.88047  0.70651  0.70651  Biso   1.000  Zn
  H1       1.0000 0.45540  0.45540  0.93560  Biso   1.000  H
  H2       1.0000 0.45540  0.45540  0.15360  Biso   1.000  H
  H3       1.0000 0.93560  0.15360  0.45540  Biso   1.000  H
  H4       1.0000 0.15360  0.93560  0.45540  Biso   1.000  H
  H5       1.0000 0.45540  0.93560  0.15360  Biso   1.000  H
  H6       1.0000 0.45540  0.15360  0.93560  Biso   1.000  H
  H7       1.0000 0.93560  0.45540  0.45540  Biso   1.000  H
  H8       1.0000 0.15360  0.45540  0.45540  Biso   1.000  H
  H9       1.0000 0.45540  0.15360  0.45540  Biso   1.000  H
  H10      1.0000 0.45540  0.93560  0.45540  Biso   1.000  H
  H11      1.0000 0.93560  0.45540  0.15360  Biso   1.000  H
  H12      1.0000 0.15360  0.45540  0.93560  Biso   1.000  H
  H13      1.0000 0.54460  0.54460  0.06440  Biso   1.000  H
  H14      1.0000 0.54460  0.54460  0.84640  Biso   1.000  H
  H15      1.0000 0.84640  0.06440  0.54460  Biso   1.000  H
  H16      1.0000 0.06440  0.84640  0.54460  Biso   1.000  H
  H17      1.0000 0.06440  0.54460  0.84640  Biso   1.000  H
  H18      1.0000 0.84640  0.54460  0.06440  Biso   1.000  H
  H19      1.0000 0.54460  0.06440  0.54460  Biso   1.000  H
  H20      1.0000 0.54460  0.84640  0.54460  Biso   1.000  H
  H21      1.0000 0.84640  0.54460  0.54460  Biso   1.000  H
  H22      1.0000 0.06440  0.54460  0.54460  Biso   1.000  H
  H23      1.0000 0.54460  0.06440  0.84640  Biso   1.000  H
  H24      1.0000 0.54460  0.84640  0.06440  Biso   1.000  H
  C1       1.0000 0.47338  0.47338  0.96238  Biso   1.000  C
  C2       1.0000 0.47338  0.47338  0.09086  Biso   1.000  C
  C3       1.0000 0.96238  0.09086  0.47338  Biso   1.000  C
  C4       1.0000 0.09086  0.96238  0.47338  Biso   1.000  C
  C5       1.0000 0.47338  0.96238  0.09086  Biso   1.000  C
  C6       1.0000 0.47338  0.09086  0.96238  Biso   1.000  C
  C7       1.0000 0.96238  0.47338  0.47338  Biso   1.000  C
  C8       1.0000 0.09086  0.47338  0.47338  Biso   1.000  C
  C9       1.0000 0.47338  0.09086  0.47338  Biso   1.000  C
  C10      1.0000 0.47338  0.96238  0.47338  Biso   1.000  C
  C11      1.0000 0.96238  0.47338  0.09086  Biso   1.000  C
  C12      1.0000 0.09086  0.47338  0.96238  Biso   1.000  C
  C13      1.0000 0.52662  0.52662  0.03762  Biso   1.000  C
  C14      1.0000 0.52662  0.52662  0.90914  Biso   1.000  C
  C15      1.0000 0.90914  0.03762  0.52662  Biso   1.000  C
  C16      1.0000 0.03762  0.90914  0.52662  Biso   1.000  C
  C17      1.0000 0.03762  0.52662  0.90914  Biso   1.000  C
  C18      1.0000 0.90914  0.52662  0.03762  Biso   1.000  C
  C19      1.0000 0.52662  0.03762  0.52662  Biso   1.000  C
  C20      1.0000 0.52662  0.90914  0.52662  Biso   1.000  C
  C21      1.0000 0.90914  0.52662  0.52662  Biso   1.000  C
  C22      1.0000 0.03762  0.52662  0.52662  Biso   1.000  C
  C23      1.0000 0.52662  0.03762  0.90914  Biso   1.000  C
  C24      1.0000 0.52662  0.90914  0.03762  Biso   1.000  C
  C25      1.0000 0.38861  0.38861  0.11139  Biso   1.000  C
  C26      1.0000 0.44619  0.44619  0.05381  Biso   1.000  C
  C27      1.0000 0.11139  0.11139  0.38861  Biso   1.000  C
  C28      1.0000 0.05381  0.05381  0.44619  Biso   1.000  C
  C29      1.0000 0.38861  0.11139  0.11139  Biso   1.000  C
  C30      1.0000 0.44619  0.05381  0.05381  Biso   1.000  C
  C31      1.0000 0.11139  0.38861  0.38861  Biso   1.000  C
  C32      1.0000 0.05381  0.44619  0.44619  Biso   1.000  C
  C33      1.0000 0.38861  0.11139  0.38861  Biso   1.000  C
  C34      1.0000 0.44619  0.05381  0.44619  Biso   1.000  C
  C35      1.0000 0.11139  0.38861  0.11139  Biso   1.000  C
  C36      1.0000 0.05381  0.44619  0.05381  Biso   1.000  C
  C37      1.0000 0.61139  0.61139  0.88861  Biso   1.000  C
  C38      1.0000 0.55381  0.55381  0.94619  Biso   1.000  C
  C39      1.0000 0.88861  0.88861  0.61139  Biso   1.000  C
  C40      1.0000 0.94619  0.94619  0.55381  Biso   1.000  C
  C41      1.0000 0.88861  0.61139  0.88861  Biso   1.000  C
  C42      1.0000 0.94619  0.55381  0.94619  Biso   1.000  C
  C43      1.0000 0.61139  0.88861  0.61139  Biso   1.000  C
  C44      1.0000 0.55381  0.94619  0.55381  Biso   1.000  C
  C45      1.0000 0.88861  0.61139  0.61139  Biso   1.000  C
  C46      1.0000 0.94619  0.55381  0.55381  Biso   1.000  C
  C47      1.0000 0.61139  0.88861  0.88861  Biso   1.000  C
  C48      1.0000 0.55381  0.94619  0.94619  Biso   1.000  C
  O1       1.0000 0.25000  0.25000  0.25000  Biso   1.000  O
  O2       1.0000 0.75000  0.75000  0.75000  Biso   1.000  O
  O3       1.0000 0.36607  0.36607  0.07299  Biso   1.000  O
  O4       1.0000 0.36607  0.36607  0.19487  Biso   1.000  O
  O5       1.0000 0.07299  0.19487  0.36607  Biso   1.000  O
  O6       1.0000 0.19487  0.07299  0.36607  Biso   1.000  O
  O7       1.0000 0.36607  0.07299  0.19487  Biso   1.000  O
  O8       1.0000 0.36607  0.19487  0.07299  Biso   1.000  O
  O9       1.0000 0.07299  0.36607  0.36607  Biso   1.000  O
  O10      1.0000 0.19487  0.36607  0.36607  Biso   1.000  O
  O11      1.0000 0.36607  0.19487  0.36607  Biso   1.000  O
  O12      1.0000 0.36607  0.07299  0.36607  Biso   1.000  O
  O13      1.0000 0.07299  0.36607  0.19487  Biso   1.000  O
  O14      1.0000 0.19487  0.36607  0.07299  Biso   1.000  O
  O15      1.0000 0.63393  0.63393  0.92701  Biso   1.000  O
  O16      1.0000 0.63393  0.63393  0.80513  Biso   1.000  O
  O17      1.0000 0.80513  0.92701  0.63393  Biso   1.000  O
  O18      1.0000 0.92701  0.80513  0.63393  Biso   1.000  O
  O19      1.0000 0.92701  0.63393  0.80513  Biso   1.000  O
  O20      1.0000 0.80513  0.63393  0.92701  Biso   1.000  O
  O21      1.0000 0.63393  0.92701  0.63393  Biso   1.000  O
  O22      1.0000 0.63393  0.80513  0.63393  Biso   1.000  O
  O23      1.0000 0.80513  0.63393  0.63393  Biso   1.000  O
  O24      1.0000 0.92701  0.63393  0.63393  Biso   1.000  O
  O25      1.0000 0.63393  0.92701  0.80513  Biso   1.000  O
  O26      1.0000 0.63393  0.80513  0.92701  Biso   1.000  O
  Zn9      1.0000 0.50112  0.51860  0.33409  Biso   1.000  Zn
  Zn10     1.0000 0.50112  0.51860  0.50741  Biso   1.000  Zn
  Zn11     1.0000 0.32780  0.51860  0.50741  Biso   1.000  Zn
  Zn12     1.0000 0.50112  0.34529  0.50741  Biso   1.000  Zn
  Zn13     1.0000 0.91124  0.92873  0.09085  Biso   1.000  Zn
  Zn14     1.0000 0.91124  0.92873  0.91753  Biso   1.000  Zn
  Zn15     1.0000 0.91124  0.10204  0.91753  Biso   1.000  Zn
  Zn16     1.0000 0.08456  0.92873  0.91753  Biso   1.000  Zn
  H25      1.0000 0.66177  0.67925  0.14735  Biso   1.000  H
  H26      1.0000 0.66177  0.67925  0.36641  Biso   1.000  H
  H27      1.0000 0.14106  0.37761  0.66806  Biso   1.000  H
  H28      1.0000 0.36012  0.15855  0.66806  Biso   1.000  H
  H29      1.0000 0.66177  0.15855  0.36641  Biso   1.000  H
  H30      1.0000 0.66177  0.37761  0.14735  Biso   1.000  H
  H31      1.0000 0.14106  0.67925  0.66806  Biso   1.000  H
  H32      1.0000 0.36012  0.67925  0.66806  Biso   1.000  H
  H33      1.0000 0.66177  0.37761  0.66806  Biso   1.000  H
  H34      1.0000 0.66177  0.15855  0.66806  Biso   1.000  H
  H35      1.0000 0.14106  0.67925  0.36641  Biso   1.000  H
  H36      1.0000 0.36012  0.67925  0.14735  Biso   1.000  H
  H37      1.0000 0.75059  0.76808  0.27759  Biso   1.000  H
  H38      1.0000 0.75059  0.76808  0.05853  Biso   1.000  H
  H39      1.0000 0.05224  0.28878  0.75688  Biso   1.000  H
  H40      1.0000 0.27130  0.06972  0.75688  Biso   1.000  H
  H41      1.0000 0.27130  0.76808  0.05853  Biso   1.000  H
  H42      1.0000 0.05224  0.76808  0.27759  Biso   1.000  H
  H43      1.0000 0.75059  0.28878  0.75688  Biso   1.000  H
  H44      1.0000 0.75059  0.06972  0.75688  Biso   1.000  H
  H45      1.0000 0.05224  0.76808  0.75688  Biso   1.000  H
  H46      1.0000 0.27130  0.76808  0.75688  Biso   1.000  H
  H47      1.0000 0.75059  0.28878  0.05853  Biso   1.000  H
  H48      1.0000 0.75059  0.06972  0.27759  Biso   1.000  H
  C49      1.0000 0.67935  0.69684  0.17398  Biso   1.000  C
  C50      1.0000 0.67935  0.69684  0.30461  Biso   1.000  C
  C51      1.0000 0.16769  0.31581  0.68564  Biso   1.000  C
  C52      1.0000 0.29832  0.18518  0.68564  Biso   1.000  C
  C53      1.0000 0.67935  0.18518  0.30461  Biso   1.000  C
  C54      1.0000 0.67935  0.31581  0.17398  Biso   1.000  C
  C55      1.0000 0.16769  0.69684  0.68564  Biso   1.000  C
  C56      1.0000 0.29832  0.69684  0.68564  Biso   1.000  C
  C57      1.0000 0.67935  0.31581  0.68564  Biso   1.000  C
  C58      1.0000 0.67935  0.18518  0.68564  Biso   1.000  C
  C59      1.0000 0.16769  0.69684  0.30461  Biso   1.000  C
  C60      1.0000 0.29832  0.69684  0.17398  Biso   1.000  C
  C61      1.0000 0.73301  0.75049  0.25096  Biso   1.000  C
  C62      1.0000 0.73301  0.75049  0.12033  Biso   1.000  C
  C63      1.0000 0.11404  0.26216  0.73930  Biso   1.000  C
  C64      1.0000 0.24467  0.13152  0.73930  Biso   1.000  C
  C65      1.0000 0.24467  0.75049  0.12033  Biso   1.000  C
  C66      1.0000 0.11404  0.75049  0.25096  Biso   1.000  C
  C67      1.0000 0.73301  0.26216  0.73930  Biso   1.000  C
  C68      1.0000 0.73301  0.13152  0.73930  Biso   1.000  C
  C69      1.0000 0.11404  0.75049  0.73930  Biso   1.000  C
  C70      1.0000 0.24467  0.75049  0.73930  Biso   1.000  C
  C71      1.0000 0.73301  0.26216  0.12033  Biso   1.000  C
  C72      1.0000 0.73301  0.13152  0.25096  Biso   1.000  C
  C73      1.0000 0.59550  0.61298  0.32637  Biso   1.000  C
  C74      1.0000 0.65253  0.67001  0.26934  Biso   1.000  C
  C75      1.0000 0.32008  0.33757  0.60179  Biso   1.000  C
  C76      1.0000 0.26305  0.28054  0.65882  Biso   1.000  C
  C77      1.0000 0.59550  0.33757  0.32637  Biso   1.000  C
  C78      1.0000 0.65253  0.28054  0.26934  Biso   1.000  C
  C79      1.0000 0.32008  0.61298  0.60179  Biso   1.000  C
  C80      1.0000 0.26305  0.67001  0.65882  Biso   1.000  C
  C81      1.0000 0.59550  0.33757  0.60179  Biso   1.000  C
  C82      1.0000 0.65253  0.28054  0.65882  Biso   1.000  C
  C83      1.0000 0.32008  0.61298  0.32637  Biso   1.000  C
  C84      1.0000 0.26305  0.67001  0.26934  Biso   1.000  C
  C85      1.0000 0.81686  0.83435  0.09857  Biso   1.000  C
  C86      1.0000 0.75983  0.77732  0.15560  Biso   1.000  C
  C87      1.0000 0.09228  0.10976  0.82315  Biso   1.000  C
  C88      1.0000 0.14931  0.16680  0.76612  Biso   1.000  C
  C89      1.0000 0.09228  0.83435  0.09857  Biso   1.000  C
  C90      1.0000 0.14931  0.77732  0.15560  Biso   1.000  C
  C91      1.0000 0.81686  0.10976  0.82315  Biso   1.000  C
  C92      1.0000 0.75983  0.16680  0.76612  Biso   1.000  C
  C93      1.0000 0.09228  0.83435  0.82315  Biso   1.000  C
  C94      1.0000 0.14931  0.77732  0.76612  Biso   1.000  C
  C95      1.0000 0.81686  0.10976  0.09857  Biso   1.000  C
  C96      1.0000 0.75983  0.16680  0.15560  Biso   1.000  C
  O27      1.0000 0.45779  0.47528  0.46408  Biso   1.000  O
  O28      1.0000 0.95457  0.97206  0.96086  Biso   1.000  O
  O29      1.0000 0.57315  0.59064  0.28839  Biso   1.000  O
  O30      1.0000 0.57315  0.59064  0.40905  Biso   1.000  O
  O31      1.0000 0.28210  0.42024  0.57944  Biso   1.000  O
  O32      1.0000 0.40276  0.29958  0.57944  Biso   1.000  O
  O33      1.0000 0.57315  0.29958  0.40905  Biso   1.000  O
  O34      1.0000 0.57315  0.42024  0.28839  Biso   1.000  O
  O35      1.0000 0.28210  0.59064  0.57944  Biso   1.000  O
  O36      1.0000 0.40276  0.59064  0.57944  Biso   1.000  O
  O37      1.0000 0.57315  0.42024  0.57944  Biso   1.000  O
  O38      1.0000 0.57315  0.29958  0.57944  Biso   1.000  O
  O39      1.0000 0.28210  0.59064  0.40905  Biso   1.000  O
  O40      1.0000 0.40276  0.59064  0.28839  Biso   1.000  O
  O41      1.0000 0.83921  0.85669  0.13655  Biso   1.000  O
  O42      1.0000 0.83921  0.85669  0.01589  Biso   1.000  O
  O43      1.0000 0.00960  0.14775  0.84550  Biso   1.000  O
  O44      1.0000 0.13026  0.02709  0.84550  Biso   1.000  O
  O45      1.0000 0.13026  0.85669  0.01589  Biso   1.000  O
  O46      1.0000 0.00960  0.85669  0.13655  Biso   1.000  O
  O47      1.0000 0.83921  0.14775  0.84550  Biso   1.000  O
  O48      1.0000 0.83921  0.02709  0.84550  Biso   1.000  O
  O49      1.0000 0.00960  0.85669  0.84550  Biso   1.000  O
  O50      1.0000 0.13026  0.85669  0.84550  Biso   1.000  O
  O51      1.0000 0.83921  0.14775  0.01589  Biso   1.000  O
  O52      1.0000 0.83921  0.02709  0.13655  Biso   1.000  O
