data_image0
_cell_length_a       18.2422
_cell_length_b       18.2422
_cell_length_c       18.2422
_cell_angle_alpha    60
_cell_angle_beta     60
_cell_angle_gamma    60

_symmetry_space_group_name_H-M    "P 1"
_symmetry_int_tables_number       1

loop_
  _symmetry_equiv_pos_as_xyz
  'x, y, z'

loop_
  _atom_site_label
  _atom_site_occupancy
  _atom_site_fract_x
  _atom_site_fract_y
  _atom_site_fract_z
  _atom_site_thermal_displace_type
  _atom_site_B_iso_or_equiv
  _atom_site_type_symbol
  C1       1.0000 0.29356  0.29355  0.11934  Biso   1.000  C
  C2       1.0000 0.29356  0.29355  0.29355  Biso   1.000  C
  C3       1.0000 0.11935  0.29355  0.29355  Biso   1.000  C
  C4       1.0000 0.29356  0.11934  0.29355  Biso   1.000  C
  C5       1.0000 0.70644  0.70645  0.88066  Biso   1.000  C
  C6       1.0000 0.70644  0.70645  0.70645  Biso   1.000  C
  C7       1.0000 0.70644  0.88066  0.70645  Biso   1.000  C
  C8       1.0000 0.88065  0.70645  0.70645  Biso   1.000  C
  C9       1.0000 0.45610  0.45610  0.93590  Biso   1.000  C
  C10      1.0000 0.45610  0.45610  0.15190  Biso   1.000  C
  C11      1.0000 0.93590  0.15190  0.45610  Biso   1.000  C
  C12      1.0000 0.15190  0.93590  0.45610  Biso   1.000  C
  C13      1.0000 0.45610  0.93590  0.15190  Biso   1.000  C
  C14      1.0000 0.45610  0.15190  0.93590  Biso   1.000  C
  C15      1.0000 0.93590  0.45610  0.45610  Biso   1.000  C
  C16      1.0000 0.15190  0.45610  0.45610  Biso   1.000  C
  C17      1.0000 0.45610  0.15190  0.45610  Biso   1.000  C
  C18      1.0000 0.45610  0.93590  0.45610  Biso   1.000  C
  C19      1.0000 0.93590  0.45610  0.15190  Biso   1.000  C
  C20      1.0000 0.15190  0.45610  0.93590  Biso   1.000  C
  C21      1.0000 0.54390  0.54390  0.06410  Biso   1.000  C
  C22      1.0000 0.54390  0.54390  0.84810  Biso   1.000  C
  C23      1.0000 0.84810  0.06410  0.54390  Biso   1.000  C
  C24      1.0000 0.06410  0.84810  0.54390  Biso   1.000  C
  C25      1.0000 0.06410  0.54390  0.84810  Biso   1.000  C
  C26      1.0000 0.84810  0.54390  0.06410  Biso   1.000  C
  C27      1.0000 0.54390  0.06410  0.54390  Biso   1.000  C
  C28      1.0000 0.54390  0.84810  0.54390  Biso   1.000  C
  C29      1.0000 0.84810  0.54390  0.54390  Biso   1.000  C
  C30      1.0000 0.06410  0.54390  0.54390  Biso   1.000  C
  C31      1.0000 0.54390  0.06410  0.84810  Biso   1.000  C
  C32      1.0000 0.54390  0.84810  0.06410  Biso   1.000  C
  C33      1.0000 0.47369  0.47369  0.96285  Biso   1.000  C
  C34      1.0000 0.47369  0.47369  0.08977  Biso   1.000  C
  C35      1.0000 0.96285  0.08977  0.47369  Biso   1.000  C
  C36      1.0000 0.08977  0.96285  0.47369  Biso   1.000  C
  C37      1.0000 0.47369  0.96285  0.08977  Biso   1.000  C
  C38      1.0000 0.47369  0.08977  0.96285  Biso   1.000  C
  C39      1.0000 0.96285  0.47369  0.47369  Biso   1.000  C
  C40      1.0000 0.08977  0.47369  0.47369  Biso   1.000  C
  C41      1.0000 0.47369  0.08977  0.47369  Biso   1.000  C
  C42      1.0000 0.47369  0.96285  0.47369  Biso   1.000  C
  C43      1.0000 0.96285  0.47369  0.08977  Biso   1.000  C
  C44      1.0000 0.08977  0.47369  0.96285  Biso   1.000  C
  C45      1.0000 0.52631  0.52631  0.03715  Biso   1.000  C
  C46      1.0000 0.52631  0.52631  0.91023  Biso   1.000  C
  C47      1.0000 0.91023  0.03715  0.52631  Biso   1.000  C
  C48      1.0000 0.03715  0.91023  0.52631  Biso   1.000  C
  C49      1.0000 0.03715  0.52631  0.91023  Biso   1.000  C
  C50      1.0000 0.91023  0.52631  0.03715  Biso   1.000  C
  C51      1.0000 0.52631  0.03715  0.52631  Biso   1.000  C
  C52      1.0000 0.52631  0.91023  0.52631  Biso   1.000  C
  C53      1.0000 0.91023  0.52631  0.52631  Biso   1.000  C
  C54      1.0000 0.03715  0.52631  0.52631  Biso   1.000  C
  C55      1.0000 0.52631  0.03715  0.91023  Biso   1.000  C
  C56      1.0000 0.52631  0.91023  0.03715  Biso   1.000  C
  C57      1.0000 0.38870  0.38870  0.11130  Biso   1.000  C
  C58      1.0000 0.44610  0.44610  0.05390  Biso   1.000  C
  C59      1.0000 0.11130  0.11130  0.38870  Biso   1.000  C
  C60      1.0000 0.05390  0.05390  0.44610  Biso   1.000  C
  C61      1.0000 0.38870  0.11130  0.11130  Biso   1.000  C
  C62      1.0000 0.44610  0.05390  0.05390  Biso   1.000  C
  C63      1.0000 0.11130  0.38870  0.38870  Biso   1.000  C
  C64      1.0000 0.05390  0.44610  0.44610  Biso   1.000  C
  C65      1.0000 0.38870  0.11130  0.38870  Biso   1.000  C
  C66      1.0000 0.44610  0.05390  0.44610  Biso   1.000  C
  C67      1.0000 0.11130  0.38870  0.11130  Biso   1.000  C
  C68      1.0000 0.05390  0.44610  0.05390  Biso   1.000  C
  C69      1.0000 0.61130  0.61130  0.88870  Biso   1.000  C
  C70      1.0000 0.55390  0.55390  0.94610  Biso   1.000  C
  C71      1.0000 0.88870  0.88870  0.61130  Biso   1.000  C
  C72      1.0000 0.94610  0.94610  0.55390  Biso   1.000  C
  C73      1.0000 0.88870  0.61130  0.88870  Biso   1.000  C
  C74      1.0000 0.94610  0.55390  0.94610  Biso   1.000  C
  C75      1.0000 0.61130  0.88870  0.61130  Biso   1.000  C
  C76      1.0000 0.55390  0.94610  0.55390  Biso   1.000  C
  C77      1.0000 0.88870  0.61130  0.61130  Biso   1.000  C
  C78      1.0000 0.94610  0.55390  0.55390  Biso   1.000  C
  C79      1.0000 0.61130  0.88870  0.88870  Biso   1.000  C
  C80      1.0000 0.55390  0.94610  0.94610  Biso   1.000  C
  C81      1.0000 0.25000  0.25000  0.25000  Biso   1.000  C
  C82      1.0000 0.75000  0.75000  0.75000  Biso   1.000  C
  C83      1.0000 0.36609  0.36609  0.07323  Biso   1.000  C
  C84      1.0000 0.36609  0.36609  0.19459  Biso   1.000  C
  C85      1.0000 0.07323  0.19459  0.36609  Biso   1.000  C
  C86      1.0000 0.19459  0.07323  0.36609  Biso   1.000  C
  C87      1.0000 0.36609  0.07323  0.19459  Biso   1.000  C
  C88      1.0000 0.36609  0.19459  0.07323  Biso   1.000  C
  C89      1.0000 0.07323  0.36609  0.36609  Biso   1.000  C
  C90      1.0000 0.19459  0.36609  0.36609  Biso   1.000  C
  C91      1.0000 0.36609  0.19459  0.36609  Biso   1.000  C
  C92      1.0000 0.36609  0.07323  0.36609  Biso   1.000  C
  C93      1.0000 0.07323  0.36609  0.19459  Biso   1.000  C
  C94      1.0000 0.19459  0.36609  0.07323  Biso   1.000  C
  C95      1.0000 0.63391  0.63391  0.92677  Biso   1.000  C
  C96      1.0000 0.63391  0.63391  0.80541  Biso   1.000  C
  C97      1.0000 0.80541  0.92677  0.63391  Biso   1.000  C
  C98      1.0000 0.92677  0.80541  0.63391  Biso   1.000  C
  C99      1.0000 0.92677  0.63391  0.80541  Biso   1.000  C
  C100     1.0000 0.80541  0.63391  0.92677  Biso   1.000  C
  C101     1.0000 0.63391  0.92677  0.63391  Biso   1.000  C
  C102     1.0000 0.63391  0.80541  0.63391  Biso   1.000  C
  C103     1.0000 0.80541  0.63391  0.63391  Biso   1.000  C
  C104     1.0000 0.92677  0.63391  0.63391  Biso   1.000  C
  C105     1.0000 0.63391  0.92677  0.80541  Biso   1.000  C
  C106     1.0000 0.63391  0.80541  0.92677  Biso   1.000  C
  O1       1.0000 0.89163  0.75845  0.43267  Biso   1.000  O
  O2       1.0000 0.06592  0.75845  0.25838  Biso   1.000  O
  O3       1.0000 0.89163  0.75845  0.25838  Biso   1.000  O
  O4       1.0000 0.89163  0.93274  0.25838  Biso   1.000  O
  O5       1.0000 0.48016  0.34512  0.67076  Biso   1.000  O
  O6       1.0000 0.30587  0.34512  0.84505  Biso   1.000  O
  O7       1.0000 0.48016  0.17083  0.84505  Biso   1.000  O
  O8       1.0000 0.48016  0.34512  0.84505  Biso   1.000  O
  O9       1.0000 0.03402  0.59602  0.61511  Biso   1.000  O
  O10      1.0000 0.24929  0.59602  0.39984  Biso   1.000  O
  O11      1.0000 0.73014  0.89991  0.09596  Biso   1.000  O
  O12      1.0000 0.73014  0.11518  0.09596  Biso   1.000  O
  O13      1.0000 0.73014  0.11518  0.39984  Biso   1.000  O
  O14      1.0000 0.73014  0.89991  0.61511  Biso   1.000  O
  O15      1.0000 0.03402  0.59602  0.09596  Biso   1.000  O
  O16      1.0000 0.24929  0.59602  0.09596  Biso   1.000  O
  O17      1.0000 0.24929  0.89991  0.09596  Biso   1.000  O
  O18      1.0000 0.03402  0.11518  0.09596  Biso   1.000  O
  O19      1.0000 0.73014  0.59602  0.39984  Biso   1.000  O
  O20      1.0000 0.73014  0.59602  0.61511  Biso   1.000  O
  O21      1.0000 0.33777  0.50754  0.48832  Biso   1.000  O
  O22      1.0000 0.12250  0.50754  0.70359  Biso   1.000  O
  O23      1.0000 0.64165  0.98839  0.00747  Biso   1.000  O
  O24      1.0000 0.64165  0.20366  0.00747  Biso   1.000  O
  O25      1.0000 0.64165  0.50754  0.70359  Biso   1.000  O
  O26      1.0000 0.64165  0.50754  0.48832  Biso   1.000  O
  O27      1.0000 0.33777  0.98839  0.00747  Biso   1.000  O
  O28      1.0000 0.12250  0.20366  0.00747  Biso   1.000  O
  O29      1.0000 0.12250  0.50754  0.00747  Biso   1.000  O
  O30      1.0000 0.33777  0.50754  0.00747  Biso   1.000  O
  O31      1.0000 0.64165  0.98839  0.70359  Biso   1.000  O
  O32      1.0000 0.64165  0.20366  0.48832  Biso   1.000  O
  O33      1.0000 0.09623  0.57832  0.58831  Biso   1.000  O
  O34      1.0000 0.22249  0.57832  0.46205  Biso   1.000  O
  O35      1.0000 0.71243  0.96212  0.07825  Biso   1.000  O
  O36      1.0000 0.71243  0.08838  0.07825  Biso   1.000  O
  O37      1.0000 0.71243  0.08838  0.46205  Biso   1.000  O
  O38      1.0000 0.71243  0.96212  0.58831  Biso   1.000  O
  O39      1.0000 0.09623  0.57832  0.07825  Biso   1.000  O
  O40      1.0000 0.22249  0.57832  0.07825  Biso   1.000  O
  O41      1.0000 0.22249  0.96212  0.07825  Biso   1.000  O
  O42      1.0000 0.09623  0.08838  0.07825  Biso   1.000  O
  O43      1.0000 0.71243  0.57832  0.46205  Biso   1.000  O
  O44      1.0000 0.71243  0.57832  0.58831  Biso   1.000  O
  O45      1.0000 0.27556  0.52525  0.51512  Biso   1.000  O
  O46      1.0000 0.14930  0.52525  0.64138  Biso   1.000  O
  O47      1.0000 0.65936  0.01518  0.02518  Biso   1.000  O
  O48      1.0000 0.65936  0.14145  0.02518  Biso   1.000  O
  O49      1.0000 0.65936  0.52525  0.64138  Biso   1.000  O
  O50      1.0000 0.65936  0.52525  0.51512  Biso   1.000  O
  O51      1.0000 0.27556  0.01518  0.02518  Biso   1.000  O
  O52      1.0000 0.14930  0.14145  0.02518  Biso   1.000  O
  O53      1.0000 0.14930  0.52525  0.02518  Biso   1.000  O
  O54      1.0000 0.27556  0.52525  0.02518  Biso   1.000  O
  O55      1.0000 0.65936  0.01518  0.64138  Biso   1.000  O
  O56      1.0000 0.65936  0.14145  0.51512  Biso   1.000  O
  O57      1.0000 0.07391  0.66330  0.44067  Biso   1.000  O
  O58      1.0000 0.13168  0.60553  0.49843  Biso   1.000  O
  O59      1.0000 0.79648  0.94074  0.16323  Biso   1.000  O
  O60      1.0000 0.73871  0.99850  0.10547  Biso   1.000  O
  O61      1.0000 0.79648  0.94074  0.44067  Biso   1.000  O
  O62      1.0000 0.73871  0.99850  0.49843  Biso   1.000  O
  O63      1.0000 0.07391  0.66330  0.16323  Biso   1.000  O
  O64      1.0000 0.13168  0.60553  0.10547  Biso   1.000  O
  O65      1.0000 0.07391  0.94074  0.16323  Biso   1.000  O
  O66      1.0000 0.13168  0.99850  0.10547  Biso   1.000  O
  O67      1.0000 0.79648  0.66330  0.44067  Biso   1.000  O
  O68      1.0000 0.73871  0.60553  0.49843  Biso   1.000  O
  O69      1.0000 0.29787  0.44027  0.66276  Biso   1.000  O
  O70      1.0000 0.24011  0.49803  0.60500  Biso   1.000  O
  O71      1.0000 0.57531  0.16283  0.94020  Biso   1.000  O
  O72      1.0000 0.63308  0.10507  0.99797  Biso   1.000  O
  O73      1.0000 0.57531  0.44027  0.66276  Biso   1.000  O
  O74      1.0000 0.63308  0.49803  0.60500  Biso   1.000  O
  O75      1.0000 0.29787  0.16283  0.94020  Biso   1.000  O
  O76      1.0000 0.24011  0.10507  0.99797  Biso   1.000  O
  O77      1.0000 0.29787  0.44027  0.94020  Biso   1.000  O
  O78      1.0000 0.24011  0.49803  0.99797  Biso   1.000  O
  O79      1.0000 0.57531  0.16283  0.66276  Biso   1.000  O
  O80      1.0000 0.63308  0.10507  0.60500  Biso   1.000  O
  O81      1.0000 0.93520  0.80202  0.30195  Biso   1.000  O
  O82      1.0000 0.43659  0.30155  0.80148  Biso   1.000  O
  O83      1.0000 0.99056  0.68586  0.47890  Biso   1.000  O
  O84      1.0000 0.11215  0.68586  0.35731  Biso   1.000  O
  O85      1.0000 0.81904  0.85738  0.18579  Biso   1.000  O
  O86      1.0000 0.81904  0.97897  0.18579  Biso   1.000  O
  O87      1.0000 0.81904  0.97897  0.35731  Biso   1.000  O
  O88      1.0000 0.81904  0.85738  0.47890  Biso   1.000  O
  O89      1.0000 0.99056  0.68586  0.18579  Biso   1.000  O
  O90      1.0000 0.11215  0.68586  0.18579  Biso   1.000  O
  O91      1.0000 0.11215  0.85738  0.18579  Biso   1.000  O
  O92      1.0000 0.99056  0.97897  0.18579  Biso   1.000  O
  O93      1.0000 0.81904  0.68586  0.35731  Biso   1.000  O
  O94      1.0000 0.81904  0.68586  0.47890  Biso   1.000  O
  O95      1.0000 0.38123  0.41771  0.62453  Biso   1.000  O
  O96      1.0000 0.25964  0.41771  0.74612  Biso   1.000  O
  O97      1.0000 0.55275  0.12459  0.91764  Biso   1.000  O
  O98      1.0000 0.55275  0.24619  0.91764  Biso   1.000  O
  O99      1.0000 0.55275  0.41771  0.74612  Biso   1.000  O
  O100     1.0000 0.55275  0.41771  0.62453  Biso   1.000  O
  O101     1.0000 0.38123  0.12459  0.91764  Biso   1.000  O
  O102     1.0000 0.25964  0.24619  0.91764  Biso   1.000  O
  O103     1.0000 0.25964  0.41771  0.91764  Biso   1.000  O
  O104     1.0000 0.38123  0.41771  0.91764  Biso   1.000  O
  O105     1.0000 0.55275  0.12459  0.74612  Biso   1.000  O
  O106     1.0000 0.55275  0.24619  0.62453  Biso   1.000  O
