data_image0
_cell_length_a       18.2507
_cell_length_b       18.2507
_cell_length_c       18.2507
_cell_angle_alpha    60
_cell_angle_beta     60
_cell_angle_gamma    60

_symmetry_space_group_name_H-M    "P 1"
_symmetry_int_tables_number       1

loop_
  _symmetry_equiv_pos_as_xyz
  'x, y, z'

loop_
  _atom_site_label
  _atom_site_occupancy
  _atom_site_fract_x
  _atom_site_fract_y
  _atom_site_fract_z
  _atom_site_thermal_displace_type
  _atom_site_B_iso_or_equiv
  _atom_site_type_symbol
  C1       1.0000 0.29354  0.29353  0.11940  Biso   1.000  C
  C2       1.0000 0.29354  0.29353  0.29353  Biso   1.000  C
  C3       1.0000 0.11941  0.29353  0.29353  Biso   1.000  C
  C4       1.0000 0.29354  0.11940  0.29353  Biso   1.000  C
  C5       1.0000 0.70646  0.70647  0.88060  Biso   1.000  C
  C6       1.0000 0.70646  0.70647  0.70647  Biso   1.000  C
  C7       1.0000 0.70646  0.88060  0.70647  Biso   1.000  C
  C8       1.0000 0.88059  0.70647  0.70647  Biso   1.000  C
  C9       1.0000 0.45580  0.45580  0.93620  Biso   1.000  C
  C10      1.0000 0.45580  0.45580  0.15220  Biso   1.000  C
  C11      1.0000 0.93620  0.15220  0.45580  Biso   1.000  C
  C12      1.0000 0.15220  0.93620  0.45580  Biso   1.000  C
  C13      1.0000 0.45580  0.93620  0.15220  Biso   1.000  C
  C14      1.0000 0.45580  0.15220  0.93620  Biso   1.000  C
  C15      1.0000 0.93620  0.45580  0.45580  Biso   1.000  C
  C16      1.0000 0.15220  0.45580  0.45580  Biso   1.000  C
  C17      1.0000 0.45580  0.15220  0.45580  Biso   1.000  C
  C18      1.0000 0.45580  0.93620  0.45580  Biso   1.000  C
  C19      1.0000 0.93620  0.45580  0.15220  Biso   1.000  C
  C20      1.0000 0.15220  0.45580  0.93620  Biso   1.000  C
  C21      1.0000 0.54420  0.54420  0.06380  Biso   1.000  C
  C22      1.0000 0.54420  0.54420  0.84780  Biso   1.000  C
  C23      1.0000 0.84780  0.06380  0.54420  Biso   1.000  C
  C24      1.0000 0.06380  0.84780  0.54420  Biso   1.000  C
  C25      1.0000 0.06380  0.54420  0.84780  Biso   1.000  C
  C26      1.0000 0.84780  0.54420  0.06380  Biso   1.000  C
  C27      1.0000 0.54420  0.06380  0.54420  Biso   1.000  C
  C28      1.0000 0.54420  0.84780  0.54420  Biso   1.000  C
  C29      1.0000 0.84780  0.54420  0.54420  Biso   1.000  C
  C30      1.0000 0.06380  0.54420  0.54420  Biso   1.000  C
  C31      1.0000 0.54420  0.06380  0.84780  Biso   1.000  C
  C32      1.0000 0.54420  0.84780  0.06380  Biso   1.000  C
  C33      1.0000 0.47349  0.47349  0.96297  Biso   1.000  C
  C34      1.0000 0.47349  0.47349  0.09005  Biso   1.000  C
  C35      1.0000 0.96297  0.09005  0.47349  Biso   1.000  C
  C36      1.0000 0.09005  0.96297  0.47349  Biso   1.000  C
  C37      1.0000 0.47349  0.96297  0.09005  Biso   1.000  C
  C38      1.0000 0.47349  0.09005  0.96297  Biso   1.000  C
  C39      1.0000 0.96297  0.47349  0.47349  Biso   1.000  C
  C40      1.0000 0.09005  0.47349  0.47349  Biso   1.000  C
  C41      1.0000 0.47349  0.09005  0.47349  Biso   1.000  C
  C42      1.0000 0.47349  0.96297  0.47349  Biso   1.000  C
  C43      1.0000 0.96297  0.47349  0.09005  Biso   1.000  C
  C44      1.0000 0.09005  0.47349  0.96297  Biso   1.000  C
  C45      1.0000 0.52651  0.52651  0.03703  Biso   1.000  C
  C46      1.0000 0.52651  0.52651  0.90995  Biso   1.000  C
  C47      1.0000 0.90995  0.03703  0.52651  Biso   1.000  C
  C48      1.0000 0.03703  0.90995  0.52651  Biso   1.000  C
  C49      1.0000 0.03703  0.52651  0.90995  Biso   1.000  C
  C50      1.0000 0.90995  0.52651  0.03703  Biso   1.000  C
  C51      1.0000 0.52651  0.03703  0.52651  Biso   1.000  C
  C52      1.0000 0.52651  0.90995  0.52651  Biso   1.000  C
  C53      1.0000 0.90995  0.52651  0.52651  Biso   1.000  C
  C54      1.0000 0.03703  0.52651  0.52651  Biso   1.000  C
  C55      1.0000 0.52651  0.03703  0.90995  Biso   1.000  C
  C56      1.0000 0.52651  0.90995  0.03703  Biso   1.000  C
  C57      1.0000 0.38859  0.38859  0.11141  Biso   1.000  C
  C58      1.0000 0.44630  0.44630  0.05370  Biso   1.000  C
  C59      1.0000 0.11141  0.11141  0.38859  Biso   1.000  C
  C60      1.0000 0.05370  0.05370  0.44630  Biso   1.000  C
  C61      1.0000 0.38859  0.11141  0.11141  Biso   1.000  C
  C62      1.0000 0.44630  0.05370  0.05370  Biso   1.000  C
  C63      1.0000 0.11141  0.38859  0.38859  Biso   1.000  C
  C64      1.0000 0.05370  0.44630  0.44630  Biso   1.000  C
  C65      1.0000 0.38859  0.11141  0.38859  Biso   1.000  C
  C66      1.0000 0.44630  0.05370  0.44630  Biso   1.000  C
  C67      1.0000 0.11141  0.38859  0.11141  Biso   1.000  C
  C68      1.0000 0.05370  0.44630  0.05370  Biso   1.000  C
  C69      1.0000 0.61141  0.61141  0.88859  Biso   1.000  C
  C70      1.0000 0.55370  0.55370  0.94630  Biso   1.000  C
  C71      1.0000 0.88859  0.88859  0.61141  Biso   1.000  C
  C72      1.0000 0.94630  0.94630  0.55370  Biso   1.000  C
  C73      1.0000 0.88859  0.61141  0.88859  Biso   1.000  C
  C74      1.0000 0.94630  0.55370  0.94630  Biso   1.000  C
  C75      1.0000 0.61141  0.88859  0.61141  Biso   1.000  C
  C76      1.0000 0.55370  0.94630  0.55370  Biso   1.000  C
  C77      1.0000 0.88859  0.61141  0.61141  Biso   1.000  C
  C78      1.0000 0.94630  0.55370  0.55370  Biso   1.000  C
  C79      1.0000 0.61141  0.88859  0.88859  Biso   1.000  C
  C80      1.0000 0.55370  0.94630  0.94630  Biso   1.000  C
  C81      1.0000 0.25000  0.25000  0.25000  Biso   1.000  C
  C82      1.0000 0.75000  0.75000  0.75000  Biso   1.000  C
  C83      1.0000 0.36605  0.36605  0.07321  Biso   1.000  C
  C84      1.0000 0.36605  0.36605  0.19469  Biso   1.000  C
  C85      1.0000 0.07321  0.19469  0.36605  Biso   1.000  C
  C86      1.0000 0.19469  0.07321  0.36605  Biso   1.000  C
  C87      1.0000 0.36605  0.07321  0.19469  Biso   1.000  C
  C88      1.0000 0.36605  0.19469  0.07321  Biso   1.000  C
  C89      1.0000 0.07321  0.36605  0.36605  Biso   1.000  C
  C90      1.0000 0.19469  0.36605  0.36605  Biso   1.000  C
  C91      1.0000 0.36605  0.19469  0.36605  Biso   1.000  C
  C92      1.0000 0.36605  0.07321  0.36605  Biso   1.000  C
  C93      1.0000 0.07321  0.36605  0.19469  Biso   1.000  C
  C94      1.0000 0.19469  0.36605  0.07321  Biso   1.000  C
  C95      1.0000 0.63395  0.63395  0.92679  Biso   1.000  C
  C96      1.0000 0.63395  0.63395  0.80531  Biso   1.000  C
  C97      1.0000 0.80531  0.92679  0.63395  Biso   1.000  C
  C98      1.0000 0.92679  0.80531  0.63395  Biso   1.000  C
  C99      1.0000 0.92679  0.63395  0.80531  Biso   1.000  C
  C100     1.0000 0.80531  0.63395  0.92679  Biso   1.000  C
  C101     1.0000 0.63395  0.92679  0.63395  Biso   1.000  C
  C102     1.0000 0.63395  0.80531  0.63395  Biso   1.000  C
  C103     1.0000 0.80531  0.63395  0.63395  Biso   1.000  C
  C104     1.0000 0.92679  0.63395  0.63395  Biso   1.000  C
  C105     1.0000 0.63395  0.92679  0.80531  Biso   1.000  C
  C106     1.0000 0.63395  0.80531  0.92679  Biso   1.000  C
  O1       1.0000 0.89192  0.75799  0.43237  Biso   1.000  O
  O2       1.0000 0.06631  0.75799  0.25799  Biso   1.000  O
  O3       1.0000 0.89192  0.75799  0.25799  Biso   1.000  O
  O4       1.0000 0.89192  0.93237  0.25799  Biso   1.000  O
  O5       1.0000 0.48166  0.34432  0.66994  Biso   1.000  O
  O6       1.0000 0.30727  0.34432  0.84432  Biso   1.000  O
  O7       1.0000 0.48166  0.16994  0.84432  Biso   1.000  O
  O8       1.0000 0.48166  0.34432  0.84432  Biso   1.000  O
  O9       1.0000 0.03468  0.59553  0.61451  Biso   1.000  O
  O10      1.0000 0.25015  0.59553  0.39904  Biso   1.000  O
  O11      1.0000 0.73117  0.89905  0.09553  Biso   1.000  O
  O12      1.0000 0.73117  0.11451  0.09553  Biso   1.000  O
  O13      1.0000 0.73117  0.11451  0.39904  Biso   1.000  O
  O14      1.0000 0.73117  0.89905  0.61451  Biso   1.000  O
  O15      1.0000 0.03468  0.59553  0.09553  Biso   1.000  O
  O16      1.0000 0.25015  0.59553  0.09553  Biso   1.000  O
  O17      1.0000 0.25015  0.89905  0.09553  Biso   1.000  O
  O18      1.0000 0.03468  0.11451  0.09553  Biso   1.000  O
  O19      1.0000 0.73117  0.59553  0.39904  Biso   1.000  O
  O20      1.0000 0.73117  0.59553  0.61451  Biso   1.000  O
  O21      1.0000 0.33890  0.50678  0.48780  Biso   1.000  O
  O22      1.0000 0.12343  0.50678  0.70326  Biso   1.000  O
  O23      1.0000 0.64242  0.98780  0.00678  Biso   1.000  O
  O24      1.0000 0.64242  0.20327  0.00678  Biso   1.000  O
  O25      1.0000 0.64242  0.50678  0.70326  Biso   1.000  O
  O26      1.0000 0.64242  0.50678  0.48780  Biso   1.000  O
  O27      1.0000 0.33890  0.98780  0.00678  Biso   1.000  O
  O28      1.0000 0.12343  0.20327  0.00678  Biso   1.000  O
  O29      1.0000 0.12343  0.50678  0.00678  Biso   1.000  O
  O30      1.0000 0.33890  0.50678  0.00678  Biso   1.000  O
  O31      1.0000 0.64242  0.98780  0.70326  Biso   1.000  O
  O32      1.0000 0.64242  0.20327  0.48780  Biso   1.000  O
  O33      1.0000 0.09679  0.57778  0.58791  Biso   1.000  O
  O34      1.0000 0.22354  0.57778  0.46115  Biso   1.000  O
  O35      1.0000 0.71342  0.96115  0.07778  Biso   1.000  O
  O36      1.0000 0.71342  0.08791  0.07778  Biso   1.000  O
  O37      1.0000 0.71342  0.08791  0.46115  Biso   1.000  O
  O38      1.0000 0.71342  0.96115  0.58791  Biso   1.000  O
  O39      1.0000 0.09679  0.57778  0.07778  Biso   1.000  O
  O40      1.0000 0.22354  0.57778  0.07778  Biso   1.000  O
  O41      1.0000 0.22354  0.96115  0.07778  Biso   1.000  O
  O42      1.0000 0.09679  0.08791  0.07778  Biso   1.000  O
  O43      1.0000 0.71342  0.57778  0.46115  Biso   1.000  O
  O44      1.0000 0.71342  0.57778  0.58791  Biso   1.000  O
  O45      1.0000 0.27680  0.52453  0.51440  Biso   1.000  O
  O46      1.0000 0.15004  0.52453  0.64116  Biso   1.000  O
  O47      1.0000 0.66017  0.01440  0.02453  Biso   1.000  O
  O48      1.0000 0.66017  0.14116  0.02453  Biso   1.000  O
  O49      1.0000 0.66017  0.52453  0.64116  Biso   1.000  O
  O50      1.0000 0.66017  0.52453  0.51440  Biso   1.000  O
  O51      1.0000 0.27680  0.01440  0.02453  Biso   1.000  O
  O52      1.0000 0.15004  0.14116  0.02453  Biso   1.000  O
  O53      1.0000 0.15004  0.52453  0.02453  Biso   1.000  O
  O54      1.0000 0.27680  0.52453  0.02453  Biso   1.000  O
  O55      1.0000 0.66017  0.01440  0.64116  Biso   1.000  O
  O56      1.0000 0.66017  0.14116  0.51440  Biso   1.000  O
  O57      1.0000 0.07433  0.66276  0.44039  Biso   1.000  O
  O58      1.0000 0.13210  0.60500  0.49816  Biso   1.000  O
  O59      1.0000 0.79670  0.94040  0.16276  Biso   1.000  O
  O60      1.0000 0.73893  0.99816  0.10500  Biso   1.000  O
  O61      1.0000 0.79670  0.94040  0.44039  Biso   1.000  O
  O62      1.0000 0.73893  0.99816  0.49816  Biso   1.000  O
  O63      1.0000 0.07433  0.66276  0.16276  Biso   1.000  O
  O64      1.0000 0.13210  0.60500  0.10500  Biso   1.000  O
  O65      1.0000 0.07433  0.94040  0.16276  Biso   1.000  O
  O66      1.0000 0.13210  0.99816  0.10500  Biso   1.000  O
  O67      1.0000 0.79670  0.66276  0.44039  Biso   1.000  O
  O68      1.0000 0.73893  0.60500  0.49816  Biso   1.000  O
  O69      1.0000 0.29925  0.43955  0.66191  Biso   1.000  O
  O70      1.0000 0.24148  0.49731  0.60415  Biso   1.000  O
  O71      1.0000 0.57688  0.16192  0.93955  Biso   1.000  O
  O72      1.0000 0.63465  0.10415  0.99731  Biso   1.000  O
  O73      1.0000 0.57688  0.43955  0.66191  Biso   1.000  O
  O74      1.0000 0.63465  0.49731  0.60415  Biso   1.000  O
  O75      1.0000 0.29925  0.16192  0.93955  Biso   1.000  O
  O76      1.0000 0.24148  0.10415  0.99731  Biso   1.000  O
  O77      1.0000 0.29925  0.43955  0.93955  Biso   1.000  O
  O78      1.0000 0.24148  0.49731  0.99731  Biso   1.000  O
  O79      1.0000 0.57688  0.16192  0.66191  Biso   1.000  O
  O80      1.0000 0.63465  0.10415  0.60415  Biso   1.000  O
  O81      1.0000 0.93552  0.80158  0.30158  Biso   1.000  O
  O82      1.0000 0.43807  0.30073  0.80073  Biso   1.000  O
  O83      1.0000 0.99082  0.68521  0.47901  Biso   1.000  O
  O84      1.0000 0.11295  0.68521  0.35688  Biso   1.000  O
  O85      1.0000 0.81915  0.85688  0.18521  Biso   1.000  O
  O86      1.0000 0.81915  0.97901  0.18521  Biso   1.000  O
  O87      1.0000 0.81915  0.97901  0.35688  Biso   1.000  O
  O88      1.0000 0.81915  0.85688  0.47901  Biso   1.000  O
  O89      1.0000 0.99082  0.68521  0.18521  Biso   1.000  O
  O90      1.0000 0.11295  0.68521  0.18521  Biso   1.000  O
  O91      1.0000 0.11295  0.85688  0.18521  Biso   1.000  O
  O92      1.0000 0.99082  0.97901  0.18521  Biso   1.000  O
  O93      1.0000 0.81915  0.68521  0.35688  Biso   1.000  O
  O94      1.0000 0.81915  0.68521  0.47901  Biso   1.000  O
  O95      1.0000 0.38276  0.41710  0.62330  Biso   1.000  O
  O96      1.0000 0.26063  0.41710  0.74543  Biso   1.000  O
  O97      1.0000 0.55443  0.12330  0.91710  Biso   1.000  O
  O98      1.0000 0.55443  0.24543  0.91710  Biso   1.000  O
  O99      1.0000 0.55443  0.41710  0.74543  Biso   1.000  O
  O100     1.0000 0.55443  0.41710  0.62330  Biso   1.000  O
  O101     1.0000 0.38276  0.12330  0.91710  Biso   1.000  O
  O102     1.0000 0.26063  0.24543  0.91710  Biso   1.000  O
  O103     1.0000 0.26063  0.41710  0.91710  Biso   1.000  O
  O104     1.0000 0.38276  0.41710  0.91710  Biso   1.000  O
  O105     1.0000 0.55443  0.12330  0.74543  Biso   1.000  O
  O106     1.0000 0.55443  0.24543  0.62330  Biso   1.000  O
