data_image0
_cell_length_a       18.2205
_cell_length_b       18.2205
_cell_length_c       18.2205
_cell_angle_alpha    60
_cell_angle_beta     60
_cell_angle_gamma    60

_symmetry_space_group_name_H-M    "P 1"
_symmetry_int_tables_number       1

loop_
  _symmetry_equiv_pos_as_xyz
  'x, y, z'

loop_
  _atom_site_label
  _atom_site_occupancy
  _atom_site_fract_x
  _atom_site_fract_y
  _atom_site_fract_z
  _atom_site_thermal_displace_type
  _atom_site_B_iso_or_equiv
  _atom_site_type_symbol
  Zn1      1.0000 0.29361  0.29361  0.11917  Biso   1.000  Zn
  Zn2      1.0000 0.29361  0.29361  0.29361  Biso   1.000  Zn
  Zn3      1.0000 0.11917  0.29361  0.29361  Biso   1.000  Zn
  Zn4      1.0000 0.29361  0.11917  0.29361  Biso   1.000  Zn
  Zn5      1.0000 0.70639  0.70639  0.88083  Biso   1.000  Zn
  Zn6      1.0000 0.70639  0.70639  0.70639  Biso   1.000  Zn
  Zn7      1.0000 0.70639  0.88083  0.70639  Biso   1.000  Zn
  Zn8      1.0000 0.88083  0.70639  0.70639  Biso   1.000  Zn
  H1       1.0000 0.45580  0.45580  0.93700  Biso   1.000  H
  H2       1.0000 0.45580  0.45580  0.15140  Biso   1.000  H
  H3       1.0000 0.93700  0.15140  0.45580  Biso   1.000  H
  H4       1.0000 0.15140  0.93700  0.45580  Biso   1.000  H
  H5       1.0000 0.45580  0.93700  0.15140  Biso   1.000  H
  H6       1.0000 0.45580  0.15140  0.93700  Biso   1.000  H
  H7       1.0000 0.93700  0.45580  0.45580  Biso   1.000  H
  H8       1.0000 0.15140  0.45580  0.45580  Biso   1.000  H
  H9       1.0000 0.45580  0.15140  0.45580  Biso   1.000  H
  H10      1.0000 0.45580  0.93700  0.45580  Biso   1.000  H
  H11      1.0000 0.93700  0.45580  0.15140  Biso   1.000  H
  H12      1.0000 0.15140  0.45580  0.93700  Biso   1.000  H
  H13      1.0000 0.54420  0.54420  0.06300  Biso   1.000  H
  H14      1.0000 0.54420  0.54420  0.84860  Biso   1.000  H
  H15      1.0000 0.84860  0.06300  0.54420  Biso   1.000  H
  H16      1.0000 0.06300  0.84860  0.54420  Biso   1.000  H
  H17      1.0000 0.06300  0.54420  0.84860  Biso   1.000  H
  H18      1.0000 0.84860  0.54420  0.06300  Biso   1.000  H
  H19      1.0000 0.54420  0.06300  0.54420  Biso   1.000  H
  H20      1.0000 0.54420  0.84860  0.54420  Biso   1.000  H
  H21      1.0000 0.84860  0.54420  0.54420  Biso   1.000  H
  H22      1.0000 0.06300  0.54420  0.54420  Biso   1.000  H
  H23      1.0000 0.54420  0.06300  0.84860  Biso   1.000  H
  H24      1.0000 0.54420  0.84860  0.06300  Biso   1.000  H
  C1       1.0000 0.47350  0.47350  0.96390  Biso   1.000  C
  C2       1.0000 0.47350  0.47350  0.08910  Biso   1.000  C
  C3       1.0000 0.96390  0.08910  0.47350  Biso   1.000  C
  C4       1.0000 0.08910  0.96390  0.47350  Biso   1.000  C
  C5       1.0000 0.47350  0.96390  0.08910  Biso   1.000  C
  C6       1.0000 0.47350  0.08910  0.96390  Biso   1.000  C
  C7       1.0000 0.96390  0.47350  0.47350  Biso   1.000  C
  C8       1.0000 0.08910  0.47350  0.47350  Biso   1.000  C
  C9       1.0000 0.47350  0.08910  0.47350  Biso   1.000  C
  C10      1.0000 0.47350  0.96390  0.47350  Biso   1.000  C
  C11      1.0000 0.96390  0.47350  0.08910  Biso   1.000  C
  C12      1.0000 0.08910  0.47350  0.96390  Biso   1.000  C
  C13      1.0000 0.52650  0.52650  0.03610  Biso   1.000  C
  C14      1.0000 0.52650  0.52650  0.91090  Biso   1.000  C
  C15      1.0000 0.91090  0.03610  0.52650  Biso   1.000  C
  C16      1.0000 0.03610  0.91090  0.52650  Biso   1.000  C
  C17      1.0000 0.03610  0.52650  0.91090  Biso   1.000  C
  C18      1.0000 0.91090  0.52650  0.03610  Biso   1.000  C
  C19      1.0000 0.52650  0.03610  0.52650  Biso   1.000  C
  C20      1.0000 0.52650  0.91090  0.52650  Biso   1.000  C
  C21      1.0000 0.91090  0.52650  0.52650  Biso   1.000  C
  C22      1.0000 0.03610  0.52650  0.52650  Biso   1.000  C
  C23      1.0000 0.52650  0.03610  0.91090  Biso   1.000  C
  C24      1.0000 0.52650  0.91090  0.03610  Biso   1.000  C
  C25      1.0000 0.38850  0.38850  0.11150  Biso   1.000  C
  C26      1.0000 0.44660  0.44660  0.05340  Biso   1.000  C
  C27      1.0000 0.11150  0.11150  0.38850  Biso   1.000  C
  C28      1.0000 0.05340  0.05340  0.44660  Biso   1.000  C
  C29      1.0000 0.38850  0.11150  0.11150  Biso   1.000  C
  C30      1.0000 0.44660  0.05340  0.05340  Biso   1.000  C
  C31      1.0000 0.11150  0.38850  0.38850  Biso   1.000  C
  C32      1.0000 0.05340  0.44660  0.44660  Biso   1.000  C
  C33      1.0000 0.38850  0.11150  0.38850  Biso   1.000  C
  C34      1.0000 0.44660  0.05340  0.44660  Biso   1.000  C
  C35      1.0000 0.11150  0.38850  0.11150  Biso   1.000  C
  C36      1.0000 0.05340  0.44660  0.05340  Biso   1.000  C
  C37      1.0000 0.61150  0.61150  0.88850  Biso   1.000  C
  C38      1.0000 0.55340  0.55340  0.94660  Biso   1.000  C
  C39      1.0000 0.88850  0.88850  0.61150  Biso   1.000  C
  C40      1.0000 0.94660  0.94660  0.55340  Biso   1.000  C
  C41      1.0000 0.88850  0.61150  0.88850  Biso   1.000  C
  C42      1.0000 0.94660  0.55340  0.94660  Biso   1.000  C
  C43      1.0000 0.61150  0.88850  0.61150  Biso   1.000  C
  C44      1.0000 0.55340  0.94660  0.55340  Biso   1.000  C
  C45      1.0000 0.88850  0.61150  0.61150  Biso   1.000  C
  C46      1.0000 0.94660  0.55340  0.55340  Biso   1.000  C
  C47      1.0000 0.61150  0.88850  0.88850  Biso   1.000  C
  C48      1.0000 0.55340  0.94660  0.94660  Biso   1.000  C
  O1       1.0000 0.25000  0.25000  0.25000  Biso   1.000  O
  O2       1.0000 0.75000  0.75000  0.75000  Biso   1.000  O
  O3       1.0000 0.36609  0.36609  0.07351  Biso   1.000  O
  O4       1.0000 0.36609  0.36609  0.19431  Biso   1.000  O
  O5       1.0000 0.07351  0.19431  0.36609  Biso   1.000  O
  O6       1.0000 0.19431  0.07351  0.36609  Biso   1.000  O
  O7       1.0000 0.36609  0.07351  0.19431  Biso   1.000  O
  O8       1.0000 0.36609  0.19431  0.07351  Biso   1.000  O
  O9       1.0000 0.07351  0.36609  0.36609  Biso   1.000  O
  O10      1.0000 0.19431  0.36609  0.36609  Biso   1.000  O
  O11      1.0000 0.36609  0.19431  0.36609  Biso   1.000  O
  O12      1.0000 0.36609  0.07351  0.36609  Biso   1.000  O
  O13      1.0000 0.07351  0.36609  0.19431  Biso   1.000  O
  O14      1.0000 0.19431  0.36609  0.07351  Biso   1.000  O
  O15      1.0000 0.63391  0.63391  0.92649  Biso   1.000  O
  O16      1.0000 0.63391  0.63391  0.80569  Biso   1.000  O
  O17      1.0000 0.80569  0.92649  0.63391  Biso   1.000  O
  O18      1.0000 0.92649  0.80569  0.63391  Biso   1.000  O
  O19      1.0000 0.92649  0.63391  0.80569  Biso   1.000  O
  O20      1.0000 0.80569  0.63391  0.92649  Biso   1.000  O
  O21      1.0000 0.63391  0.92649  0.63391  Biso   1.000  O
  O22      1.0000 0.63391  0.80569  0.63391  Biso   1.000  O
  O23      1.0000 0.80569  0.63391  0.63391  Biso   1.000  O
  O24      1.0000 0.92649  0.63391  0.63391  Biso   1.000  O
  O25      1.0000 0.63391  0.92649  0.80569  Biso   1.000  O
  O26      1.0000 0.63391  0.80569  0.92649  Biso   1.000  O
  Zn9      1.0000 0.00549  0.83715  0.13359  Biso   1.000  Zn
  Zn10     1.0000 0.83350  0.00914  0.13359  Biso   1.000  Zn
  Zn11     1.0000 0.42573  0.42938  0.72583  Biso   1.000  Zn
  Zn12     1.0000 0.00549  0.00914  0.13359  Biso   1.000  Zn
  Zn13     1.0000 0.42573  0.60137  0.55384  Biso   1.000  Zn
  Zn14     1.0000 0.42573  0.42938  0.55384  Biso   1.000  Zn
  Zn15     1.0000 0.59772  0.42938  0.55384  Biso   1.000  Zn
  Zn16     1.0000 0.00549  0.00914  0.96161  Biso   1.000  Zn
  C49      1.0000 0.62959  0.75570  0.37474  Biso   1.000  C
  C50      1.0000 0.18458  0.68282  0.31269  Biso   1.000  C
  C51      1.0000 0.75205  0.25028  0.37474  Biso   1.000  C
  C52      1.0000 0.15614  0.77249  0.89694  Biso   1.000  C
  C53      1.0000 0.62959  0.25028  0.88016  Biso   1.000  C
  C54      1.0000 0.76884  0.77249  0.28425  Biso   1.000  C
  C55      1.0000 0.60431  0.60796  0.46125  Biso   1.000  C
  C56      1.0000 0.67917  0.80527  0.31269  Biso   1.000  C
  C57      1.0000 0.80162  0.68282  0.31269  Biso   1.000  C
  C58      1.0000 0.15614  0.15979  0.89694  Biso   1.000  C
  C59      1.0000 0.15614  0.77249  0.28425  Biso   1.000  C
  C60      1.0000 0.24663  0.75570  0.75770  Biso   1.000  C
  C61      1.0000 0.24663  0.63324  0.37474  Biso   1.000  C
  C62      1.0000 0.09808  0.83055  0.22619  Biso   1.000  C
  C63      1.0000 0.82690  0.10173  0.95501  Biso   1.000  C
  C64      1.0000 0.60431  0.33679  0.46125  Biso   1.000  C
  C65      1.0000 0.82690  0.10173  0.22619  Biso   1.000  C
  C66      1.0000 0.82690  0.83055  0.22619  Biso   1.000  C
  C67      1.0000 0.75205  0.63324  0.37474  Biso   1.000  C
  C68      1.0000 0.80162  0.18823  0.31269  Biso   1.000  C
  C69      1.0000 0.33314  0.60796  0.46125  Biso   1.000  C
  C70      1.0000 0.67917  0.18823  0.31269  Biso   1.000  C
  C71      1.0000 0.24663  0.63324  0.88016  Biso   1.000  C
  C72      1.0000 0.09808  0.10173  0.95501  Biso   1.000  C
  C73      1.0000 0.67917  0.18823  0.92973  Biso   1.000  C
  C74      1.0000 0.60431  0.33679  0.73242  Biso   1.000  C
  C75      1.0000 0.27507  0.66603  0.40318  Biso   1.000  C
  C76      1.0000 0.62959  0.25028  0.37474  Biso   1.000  C
  C77      1.0000 0.18458  0.18823  0.80728  Biso   1.000  C
  C78      1.0000 0.09808  0.83055  0.95501  Biso   1.000  C
  C79      1.0000 0.75205  0.25028  0.75770  Biso   1.000  C
  C80      1.0000 0.18458  0.18823  0.92973  Biso   1.000  C
  C81      1.0000 0.66238  0.27872  0.79049  Biso   1.000  C
  C82      1.0000 0.24663  0.75570  0.37474  Biso   1.000  C
  C83      1.0000 0.24663  0.25028  0.75770  Biso   1.000  C
  C84      1.0000 0.33314  0.60796  0.73242  Biso   1.000  C
  C85      1.0000 0.24663  0.25028  0.88016  Biso   1.000  C
  C86      1.0000 0.18458  0.68282  0.92973  Biso   1.000  C
  C87      1.0000 0.18458  0.80527  0.80728  Biso   1.000  C
  C88      1.0000 0.76884  0.15979  0.28425  Biso   1.000  C
  C89      1.0000 0.18458  0.80527  0.31269  Biso   1.000  C
  C90      1.0000 0.66238  0.27872  0.40318  Biso   1.000  C
  C91      1.0000 0.27507  0.66603  0.79049  Biso   1.000  C
  C92      1.0000 0.33314  0.33679  0.73242  Biso   1.000  C
  C93      1.0000 0.27507  0.27872  0.79049  Biso   1.000  C
  C94      1.0000 0.76884  0.15979  0.89694  Biso   1.000  C
  C95      1.0000 0.80162  0.18823  0.80728  Biso   1.000  C
  C96      1.0000 0.66238  0.66603  0.40318  Biso   1.000  C
  O27      1.0000 0.35378  0.64991  0.48189  Biso   1.000  O
  O28      1.0000 0.35378  0.64991  0.64919  Biso   1.000  O
  O29      1.0000 0.07744  0.78860  0.20555  Biso   1.000  O
  O30      1.0000 0.52109  0.35743  0.77437  Biso   1.000  O
  O31      1.0000 0.35378  0.35743  0.77437  Biso   1.000  O
  O32      1.0000 0.07744  0.78860  0.03824  Biso   1.000  O
  O33      1.0000 0.91013  0.08109  0.91306  Biso   1.000  O
  O34      1.0000 0.07744  0.08109  0.91306  Biso   1.000  O
  O35      1.0000 0.35378  0.52474  0.48189  Biso   1.000  O
  O36      1.0000 0.64626  0.52474  0.48189  Biso   1.000  O
  O37      1.0000 0.07744  0.91378  0.20555  Biso   1.000  O
  O38      1.0000 0.35378  0.35743  0.64919  Biso   1.000  O
  O39      1.0000 0.91013  0.08109  0.20555  Biso   1.000  O
  O40      1.0000 0.78495  0.91378  0.20555  Biso   1.000  O
  O41      1.0000 0.78495  0.08109  0.20555  Biso   1.000  O
  O42      1.0000 0.35378  0.52474  0.77437  Biso   1.000  O
  O43      1.0000 0.46873  0.47238  0.59684  Biso   1.000  O
  O44      1.0000 0.52109  0.64991  0.48189  Biso   1.000  O
  O45      1.0000 0.91013  0.78860  0.20555  Biso   1.000  O
  O46      1.0000 0.78495  0.08109  0.03824  Biso   1.000  O
  O47      1.0000 0.64626  0.35743  0.48189  Biso   1.000  O
  O48      1.0000 0.07744  0.08109  0.03824  Biso   1.000  O
  O49      1.0000 0.96249  0.96614  0.09060  Biso   1.000  O
  O50      1.0000 0.52109  0.35743  0.48189  Biso   1.000  O
  O51      1.0000 0.07744  0.91378  0.91306  Biso   1.000  O
  O52      1.0000 0.64626  0.35743  0.64919  Biso   1.000  O
  H25      1.0000 0.55376  0.78757  0.39672  Biso   1.000  H
  H26      1.0000 0.16483  0.64702  0.29294  Biso   1.000  H
  H27      1.0000 0.78392  0.27226  0.39672  Biso   1.000  H
  H28      1.0000 0.55376  0.27226  0.91202  Biso   1.000  H
  H29      1.0000 0.64730  0.88110  0.29071  Biso   1.000  H
  H30      1.0000 0.87692  0.64702  0.29294  Biso   1.000  H
  H31      1.0000 0.26861  0.78757  0.68187  Biso   1.000  H
  H32      1.0000 0.26861  0.55741  0.39672  Biso   1.000  H
  H33      1.0000 0.78392  0.55741  0.39672  Biso   1.000  H
  H34      1.0000 0.87745  0.16625  0.29071  Biso   1.000  H
  H35      1.0000 0.64730  0.16625  0.29071  Biso   1.000  H
  H36      1.0000 0.26861  0.55741  0.91202  Biso   1.000  H
  H37      1.0000 0.64730  0.16625  0.00556  Biso   1.000  H
  H38      1.0000 0.55376  0.27226  0.39672  Biso   1.000  H
  H39      1.0000 0.16483  0.16848  0.77148  Biso   1.000  H
  H40      1.0000 0.78785  0.27003  0.68240  Biso   1.000  H
  H41      1.0000 0.16483  0.16848  0.00503  Biso   1.000  H
  H42      1.0000 0.26638  0.79150  0.39449  Biso   1.000  H
  H43      1.0000 0.26861  0.27226  0.68187  Biso   1.000  H
  H44      1.0000 0.26861  0.27226  0.91202  Biso   1.000  H
  H45      1.0000 0.16483  0.64702  0.00503  Biso   1.000  H
  H46      1.0000 0.16483  0.88057  0.77148  Biso   1.000  H
  H47      1.0000 0.16483  0.88057  0.29294  Biso   1.000  H
  H48      1.0000 0.87745  0.16625  0.77541  Biso   1.000  H
