data_image0
_cell_length_a       18.2115
_cell_length_b       18.2115
_cell_length_c       18.2115
_cell_angle_alpha    60
_cell_angle_beta     60
_cell_angle_gamma    60

_symmetry_space_group_name_H-M    "P 1"
_symmetry_int_tables_number       1

loop_
  _symmetry_equiv_pos_as_xyz
  'x, y, z'

loop_
  _atom_site_label
  _atom_site_occupancy
  _atom_site_fract_x
  _atom_site_fract_y
  _atom_site_fract_z
  _atom_site_thermal_displace_type
  _atom_site_B_iso_or_equiv
  _atom_site_type_symbol
  C1       1.0000 0.29361  0.29361  0.11917  Biso   1.000  C
  C2       1.0000 0.29361  0.29361  0.29361  Biso   1.000  C
  C3       1.0000 0.11917  0.29361  0.29361  Biso   1.000  C
  C4       1.0000 0.29361  0.11917  0.29361  Biso   1.000  C
  C5       1.0000 0.70639  0.70639  0.88083  Biso   1.000  C
  C6       1.0000 0.70639  0.70639  0.70639  Biso   1.000  C
  C7       1.0000 0.70639  0.88083  0.70639  Biso   1.000  C
  C8       1.0000 0.88083  0.70639  0.70639  Biso   1.000  C
  C9       1.0000 0.45530  0.45530  0.93770  Biso   1.000  C
  C10      1.0000 0.45530  0.45530  0.15170  Biso   1.000  C
  C11      1.0000 0.93770  0.15170  0.45530  Biso   1.000  C
  C12      1.0000 0.15170  0.93770  0.45530  Biso   1.000  C
  C13      1.0000 0.45530  0.93770  0.15170  Biso   1.000  C
  C14      1.0000 0.45530  0.15170  0.93770  Biso   1.000  C
  C15      1.0000 0.93770  0.45530  0.45530  Biso   1.000  C
  C16      1.0000 0.15170  0.45530  0.45530  Biso   1.000  C
  C17      1.0000 0.45530  0.15170  0.45530  Biso   1.000  C
  C18      1.0000 0.45530  0.93770  0.45530  Biso   1.000  C
  C19      1.0000 0.93770  0.45530  0.15170  Biso   1.000  C
  C20      1.0000 0.15170  0.45530  0.93770  Biso   1.000  C
  C21      1.0000 0.54470  0.54470  0.06230  Biso   1.000  C
  C22      1.0000 0.54470  0.54470  0.84830  Biso   1.000  C
  C23      1.0000 0.84830  0.06230  0.54470  Biso   1.000  C
  C24      1.0000 0.06230  0.84830  0.54470  Biso   1.000  C
  C25      1.0000 0.06230  0.54470  0.84830  Biso   1.000  C
  C26      1.0000 0.84830  0.54470  0.06230  Biso   1.000  C
  C27      1.0000 0.54470  0.06230  0.54470  Biso   1.000  C
  C28      1.0000 0.54470  0.84830  0.54470  Biso   1.000  C
  C29      1.0000 0.84830  0.54470  0.54470  Biso   1.000  C
  C30      1.0000 0.06230  0.54470  0.54470  Biso   1.000  C
  C31      1.0000 0.54470  0.06230  0.84830  Biso   1.000  C
  C32      1.0000 0.54470  0.84830  0.06230  Biso   1.000  C
  C33      1.0000 0.47300  0.47300  0.96450  Biso   1.000  C
  C34      1.0000 0.47300  0.47300  0.08950  Biso   1.000  C
  C35      1.0000 0.96450  0.08950  0.47300  Biso   1.000  C
  C36      1.0000 0.08950  0.96450  0.47300  Biso   1.000  C
  C37      1.0000 0.47300  0.96450  0.08950  Biso   1.000  C
  C38      1.0000 0.47300  0.08950  0.96450  Biso   1.000  C
  C39      1.0000 0.96450  0.47300  0.47300  Biso   1.000  C
  C40      1.0000 0.08950  0.47300  0.47300  Biso   1.000  C
  C41      1.0000 0.47300  0.08950  0.47300  Biso   1.000  C
  C42      1.0000 0.47300  0.96450  0.47300  Biso   1.000  C
  C43      1.0000 0.96450  0.47300  0.08950  Biso   1.000  C
  C44      1.0000 0.08950  0.47300  0.96450  Biso   1.000  C
  C45      1.0000 0.52700  0.52700  0.03550  Biso   1.000  C
  C46      1.0000 0.52700  0.52700  0.91050  Biso   1.000  C
  C47      1.0000 0.91050  0.03550  0.52700  Biso   1.000  C
  C48      1.0000 0.03550  0.91050  0.52700  Biso   1.000  C
  C49      1.0000 0.03550  0.52700  0.91050  Biso   1.000  C
  C50      1.0000 0.91050  0.52700  0.03550  Biso   1.000  C
  C51      1.0000 0.52700  0.03550  0.52700  Biso   1.000  C
  C52      1.0000 0.52700  0.91050  0.52700  Biso   1.000  C
  C53      1.0000 0.91050  0.52700  0.52700  Biso   1.000  C
  C54      1.0000 0.03550  0.52700  0.52700  Biso   1.000  C
  C55      1.0000 0.52700  0.03550  0.91050  Biso   1.000  C
  C56      1.0000 0.52700  0.91050  0.03550  Biso   1.000  C
  C57      1.0000 0.38860  0.38860  0.11140  Biso   1.000  C
  C58      1.0000 0.44600  0.44600  0.05400  Biso   1.000  C
  C59      1.0000 0.11140  0.11140  0.38860  Biso   1.000  C
  C60      1.0000 0.05400  0.05400  0.44600  Biso   1.000  C
  C61      1.0000 0.38860  0.11140  0.11140  Biso   1.000  C
  C62      1.0000 0.44600  0.05400  0.05400  Biso   1.000  C
  C63      1.0000 0.11140  0.38860  0.38860  Biso   1.000  C
  C64      1.0000 0.05400  0.44600  0.44600  Biso   1.000  C
  C65      1.0000 0.38860  0.11140  0.38860  Biso   1.000  C
  C66      1.0000 0.44600  0.05400  0.44600  Biso   1.000  C
  C67      1.0000 0.11140  0.38860  0.11140  Biso   1.000  C
  C68      1.0000 0.05400  0.44600  0.05400  Biso   1.000  C
  C69      1.0000 0.61140  0.61140  0.88860  Biso   1.000  C
  C70      1.0000 0.55400  0.55400  0.94600  Biso   1.000  C
  C71      1.0000 0.88860  0.88860  0.61140  Biso   1.000  C
  C72      1.0000 0.94600  0.94600  0.55400  Biso   1.000  C
  C73      1.0000 0.88860  0.61140  0.88860  Biso   1.000  C
  C74      1.0000 0.94600  0.55400  0.94600  Biso   1.000  C
  C75      1.0000 0.61140  0.88860  0.61140  Biso   1.000  C
  C76      1.0000 0.55400  0.94600  0.55400  Biso   1.000  C
  C77      1.0000 0.88860  0.61140  0.61140  Biso   1.000  C
  C78      1.0000 0.94600  0.55400  0.55400  Biso   1.000  C
  C79      1.0000 0.61140  0.88860  0.88860  Biso   1.000  C
  C80      1.0000 0.55400  0.94600  0.94600  Biso   1.000  C
  C81      1.0000 0.25000  0.25000  0.25000  Biso   1.000  C
  C82      1.0000 0.75000  0.75000  0.75000  Biso   1.000  C
  C83      1.0000 0.36611  0.36611  0.07317  Biso   1.000  C
  C84      1.0000 0.36611  0.36611  0.19461  Biso   1.000  C
  C85      1.0000 0.07317  0.19461  0.36611  Biso   1.000  C
  C86      1.0000 0.19461  0.07317  0.36611  Biso   1.000  C
  C87      1.0000 0.36611  0.07317  0.19461  Biso   1.000  C
  C88      1.0000 0.36611  0.19461  0.07317  Biso   1.000  C
  C89      1.0000 0.07317  0.36611  0.36611  Biso   1.000  C
  C90      1.0000 0.19461  0.36611  0.36611  Biso   1.000  C
  C91      1.0000 0.36611  0.19461  0.36611  Biso   1.000  C
  C92      1.0000 0.36611  0.07317  0.36611  Biso   1.000  C
  C93      1.0000 0.07317  0.36611  0.19461  Biso   1.000  C
  C94      1.0000 0.19461  0.36611  0.07317  Biso   1.000  C
  C95      1.0000 0.63389  0.63389  0.92683  Biso   1.000  C
  C96      1.0000 0.63389  0.63389  0.80539  Biso   1.000  C
  C97      1.0000 0.80539  0.92683  0.63389  Biso   1.000  C
  C98      1.0000 0.92683  0.80539  0.63389  Biso   1.000  C
  C99      1.0000 0.92683  0.63389  0.80539  Biso   1.000  C
  C100     1.0000 0.80539  0.63389  0.92683  Biso   1.000  C
  C101     1.0000 0.63389  0.92683  0.63389  Biso   1.000  C
  C102     1.0000 0.63389  0.80539  0.63389  Biso   1.000  C
  C103     1.0000 0.80539  0.63389  0.63389  Biso   1.000  C
  C104     1.0000 0.92683  0.63389  0.63389  Biso   1.000  C
  C105     1.0000 0.63389  0.92683  0.80539  Biso   1.000  C
  C106     1.0000 0.63389  0.80539  0.92683  Biso   1.000  C
  O1       1.0000 0.52818  0.16276  0.65093  Biso   1.000  O
  O2       1.0000 0.52818  0.33977  0.65093  Biso   1.000  O
  O3       1.0000 0.35117  0.33977  0.65093  Biso   1.000  O
  O4       1.0000 0.52818  0.33977  0.47392  Biso   1.000  O
  O5       1.0000 0.95519  0.74610  0.05726  Biso   1.000  O
  O6       1.0000 0.95519  0.92311  0.05726  Biso   1.000  O
  O7       1.0000 0.13220  0.74610  0.05726  Biso   1.000  O
  O8       1.0000 0.95519  0.74610  0.23427  Biso   1.000  O
  O9       1.0000 0.39411  0.97938  0.80966  Biso   1.000  O
  O10      1.0000 0.68691  0.49850  0.51686  Biso   1.000  O
  O11      1.0000 0.16780  0.20570  0.80966  Biso   1.000  O
  O12      1.0000 0.68691  0.49850  0.29055  Biso   1.000  O
  O13      1.0000 0.16780  0.49850  0.51686  Biso   1.000  O
  O14      1.0000 0.68691  0.20570  0.80966  Biso   1.000  O
  O15      1.0000 0.39411  0.49850  0.29055  Biso   1.000  O
  O16      1.0000 0.68691  0.97938  0.80966  Biso   1.000  O
  O17      1.0000 0.68691  0.20570  0.29055  Biso   1.000  O
  O18      1.0000 0.39411  0.49850  0.80966  Biso   1.000  O
  O19      1.0000 0.68691  0.97938  0.51686  Biso   1.000  O
  O20      1.0000 0.16780  0.49850  0.80966  Biso   1.000  O
  O21      1.0000 0.08926  0.58737  0.89853  Biso   1.000  O
  O22      1.0000 0.79646  0.10648  0.19133  Biso   1.000  O
  O23      1.0000 0.31557  0.58737  0.89853  Biso   1.000  O
  O24      1.0000 0.79646  0.88017  0.41765  Biso   1.000  O
  O25      1.0000 0.31557  0.58737  0.19133  Biso   1.000  O
  O26      1.0000 0.79646  0.10648  0.89853  Biso   1.000  O
  O27      1.0000 0.08926  0.58737  0.41765  Biso   1.000  O
  O28      1.0000 0.79646  0.88017  0.89853  Biso   1.000  O
  O29      1.0000 0.79646  0.58737  0.41765  Biso   1.000  O
  O30      1.0000 0.08926  0.10648  0.89853  Biso   1.000  O
  O31      1.0000 0.79646  0.58737  0.19133  Biso   1.000  O
  O32      1.0000 0.31557  0.88017  0.89853  Biso   1.000  O
  O33      1.0000 0.32420  0.00282  0.83290  Biso   1.000  O
  O34      1.0000 0.71015  0.52173  0.44695  Biso   1.000  O
  O35      1.0000 0.19124  0.13578  0.83290  Biso   1.000  O
  O36      1.0000 0.71015  0.52173  0.31399  Biso   1.000  O
  O37      1.0000 0.19124  0.52173  0.44695  Biso   1.000  O
  O38      1.0000 0.71015  0.13578  0.83290  Biso   1.000  O
  O39      1.0000 0.32420  0.52173  0.31399  Biso   1.000  O
  O40      1.0000 0.71015  0.00282  0.83290  Biso   1.000  O
  O41      1.0000 0.71015  0.13578  0.31399  Biso   1.000  O
  O42      1.0000 0.32420  0.52173  0.83290  Biso   1.000  O
  O43      1.0000 0.71015  0.00282  0.44695  Biso   1.000  O
  O44      1.0000 0.19124  0.52173  0.83290  Biso   1.000  O
  O45      1.0000 0.15917  0.56413  0.87530  Biso   1.000  O
  O46      1.0000 0.77322  0.08304  0.26125  Biso   1.000  O
  O47      1.0000 0.29213  0.56413  0.87530  Biso   1.000  O
  O48      1.0000 0.77322  0.95008  0.39421  Biso   1.000  O
  O49      1.0000 0.29213  0.56413  0.26125  Biso   1.000  O
  O50      1.0000 0.77322  0.08304  0.87530  Biso   1.000  O
  O51      1.0000 0.15917  0.56413  0.39421  Biso   1.000  O
  O52      1.0000 0.77322  0.95008  0.87530  Biso   1.000  O
  O53      1.0000 0.77322  0.56413  0.39421  Biso   1.000  O
  O54      1.0000 0.15917  0.08304  0.87530  Biso   1.000  O
  O55      1.0000 0.77322  0.56413  0.26125  Biso   1.000  O
  O56      1.0000 0.29213  0.95008  0.87530  Biso   1.000  O
  O57      1.0000 0.34097  0.15256  0.74964  Biso   1.000  O
  O58      1.0000 0.28691  0.09850  0.80370  Biso   1.000  O
  O59      1.0000 0.62689  0.43848  0.46372  Biso   1.000  O
  O60      1.0000 0.68095  0.49253  0.40967  Biso   1.000  O
  O61      1.0000 0.34097  0.43848  0.46372  Biso   1.000  O
  O62      1.0000 0.28691  0.49253  0.40967  Biso   1.000  O
  O63      1.0000 0.62689  0.15256  0.74964  Biso   1.000  O
  O64      1.0000 0.68095  0.09850  0.80370  Biso   1.000  O
  O65      1.0000 0.62689  0.15256  0.46372  Biso   1.000  O
  O66      1.0000 0.68095  0.09850  0.40967  Biso   1.000  O
  O67      1.0000 0.34097  0.43848  0.74964  Biso   1.000  O
  O68      1.0000 0.28691  0.49253  0.80370  Biso   1.000  O
  O69      1.0000 0.14240  0.64739  0.95855  Biso   1.000  O
  O70      1.0000 0.19645  0.59333  0.90450  Biso   1.000  O
  O71      1.0000 0.85648  0.93331  0.24447  Biso   1.000  O
  O72      1.0000 0.80242  0.98737  0.29853  Biso   1.000  O
  O73      1.0000 0.14240  0.64739  0.24447  Biso   1.000  O
  O74      1.0000 0.19645  0.59333  0.29853  Biso   1.000  O
  O75      1.0000 0.85648  0.93331  0.95855  Biso   1.000  O
  O76      1.0000 0.80242  0.98737  0.90450  Biso   1.000  O
  O77      1.0000 0.85648  0.64739  0.24447  Biso   1.000  O
  O78      1.0000 0.80242  0.59333  0.29853  Biso   1.000  O
  O79      1.0000 0.14240  0.93331  0.95855  Biso   1.000  O
  O80      1.0000 0.19645  0.98737  0.90450  Biso   1.000  O
  O81      1.0000 0.48393  0.29552  0.60668  Biso   1.000  O
  O82      1.0000 0.99944  0.79035  0.10151  Biso   1.000  O
  O83      1.0000 0.42846  0.11639  0.72398  Biso   1.000  O
  O84      1.0000 0.60123  0.41282  0.55121  Biso   1.000  O
  O85      1.0000 0.30480  0.24005  0.72398  Biso   1.000  O
  O86      1.0000 0.60123  0.41282  0.42755  Biso   1.000  O
  O87      1.0000 0.30480  0.41282  0.55121  Biso   1.000  O
  O88      1.0000 0.60123  0.24005  0.72398  Biso   1.000  O
  O89      1.0000 0.42846  0.41282  0.42755  Biso   1.000  O
  O90      1.0000 0.60123  0.11639  0.72398  Biso   1.000  O
  O91      1.0000 0.60123  0.24005  0.42755  Biso   1.000  O
  O92      1.0000 0.42846  0.41282  0.72398  Biso   1.000  O
  O93      1.0000 0.60123  0.11639  0.55121  Biso   1.000  O
  O94      1.0000 0.30480  0.41282  0.72398  Biso   1.000  O
  O95      1.0000 0.05491  0.67305  0.98421  Biso   1.000  O
  O96      1.0000 0.88214  0.96948  0.15698  Biso   1.000  O
  O97      1.0000 0.17857  0.67305  0.98421  Biso   1.000  O
  O98      1.0000 0.88214  0.84582  0.28064  Biso   1.000  O
  O99      1.0000 0.17857  0.67305  0.15698  Biso   1.000  O
  O100     1.0000 0.88214  0.96948  0.98421  Biso   1.000  O
  O101     1.0000 0.05491  0.67305  0.28064  Biso   1.000  O
  O102     1.0000 0.88214  0.84582  0.98421  Biso   1.000  O
  O103     1.0000 0.88214  0.67305  0.28064  Biso   1.000  O
  O104     1.0000 0.05491  0.96948  0.98421  Biso   1.000  O
  O105     1.0000 0.88214  0.67305  0.15698  Biso   1.000  O
  O106     1.0000 0.17857  0.84582  0.98421  Biso   1.000  O
