data_image0
_cell_length_a       18.255
_cell_length_b       18.255
_cell_length_c       18.255
_cell_angle_alpha    60
_cell_angle_beta     60
_cell_angle_gamma    60

_symmetry_space_group_name_H-M    "P 1"
_symmetry_int_tables_number       1

loop_
  _symmetry_equiv_pos_as_xyz
  'x, y, z'

loop_
  _atom_site_label
  _atom_site_occupancy
  _atom_site_fract_x
  _atom_site_fract_y
  _atom_site_fract_z
  _atom_site_thermal_displace_type
  _atom_site_B_iso_or_equiv
  _atom_site_type_symbol
  C1       1.0000 0.29354  0.29354  0.11938  Biso   1.000  C
  C2       1.0000 0.29354  0.29354  0.29354  Biso   1.000  C
  C3       1.0000 0.11938  0.29354  0.29354  Biso   1.000  C
  C4       1.0000 0.29354  0.11938  0.29354  Biso   1.000  C
  C5       1.0000 0.70646  0.70646  0.88062  Biso   1.000  C
  C6       1.0000 0.70646  0.70646  0.70646  Biso   1.000  C
  C7       1.0000 0.70646  0.88062  0.70646  Biso   1.000  C
  C8       1.0000 0.88062  0.70646  0.70646  Biso   1.000  C
  C9       1.0000 0.45570  0.45570  0.93630  Biso   1.000  C
  C10      1.0000 0.45570  0.45570  0.15230  Biso   1.000  C
  C11      1.0000 0.93630  0.15230  0.45570  Biso   1.000  C
  C12      1.0000 0.15230  0.93630  0.45570  Biso   1.000  C
  C13      1.0000 0.45570  0.93630  0.15230  Biso   1.000  C
  C14      1.0000 0.45570  0.15230  0.93630  Biso   1.000  C
  C15      1.0000 0.93630  0.45570  0.45570  Biso   1.000  C
  C16      1.0000 0.15230  0.45570  0.45570  Biso   1.000  C
  C17      1.0000 0.45570  0.15230  0.45570  Biso   1.000  C
  C18      1.0000 0.45570  0.93630  0.45570  Biso   1.000  C
  C19      1.0000 0.93630  0.45570  0.15230  Biso   1.000  C
  C20      1.0000 0.15230  0.45570  0.93630  Biso   1.000  C
  C21      1.0000 0.54430  0.54430  0.06370  Biso   1.000  C
  C22      1.0000 0.54430  0.54430  0.84770  Biso   1.000  C
  C23      1.0000 0.84770  0.06370  0.54430  Biso   1.000  C
  C24      1.0000 0.06370  0.84770  0.54430  Biso   1.000  C
  C25      1.0000 0.06370  0.54430  0.84770  Biso   1.000  C
  C26      1.0000 0.84770  0.54430  0.06370  Biso   1.000  C
  C27      1.0000 0.54430  0.06370  0.54430  Biso   1.000  C
  C28      1.0000 0.54430  0.84770  0.54430  Biso   1.000  C
  C29      1.0000 0.84770  0.54430  0.54430  Biso   1.000  C
  C30      1.0000 0.06370  0.54430  0.54430  Biso   1.000  C
  C31      1.0000 0.54430  0.06370  0.84770  Biso   1.000  C
  C32      1.0000 0.54430  0.84770  0.06370  Biso   1.000  C
  C33      1.0000 0.47332  0.47332  0.96310  Biso   1.000  C
  C34      1.0000 0.47332  0.47332  0.09026  Biso   1.000  C
  C35      1.0000 0.96310  0.09026  0.47332  Biso   1.000  C
  C36      1.0000 0.09026  0.96310  0.47332  Biso   1.000  C
  C37      1.0000 0.47332  0.96310  0.09026  Biso   1.000  C
  C38      1.0000 0.47332  0.09026  0.96310  Biso   1.000  C
  C39      1.0000 0.96310  0.47332  0.47332  Biso   1.000  C
  C40      1.0000 0.09026  0.47332  0.47332  Biso   1.000  C
  C41      1.0000 0.47332  0.09026  0.47332  Biso   1.000  C
  C42      1.0000 0.47332  0.96310  0.47332  Biso   1.000  C
  C43      1.0000 0.96310  0.47332  0.09026  Biso   1.000  C
  C44      1.0000 0.09026  0.47332  0.96310  Biso   1.000  C
  C45      1.0000 0.52668  0.52668  0.03690  Biso   1.000  C
  C46      1.0000 0.52668  0.52668  0.90974  Biso   1.000  C
  C47      1.0000 0.90974  0.03690  0.52668  Biso   1.000  C
  C48      1.0000 0.03690  0.90974  0.52668  Biso   1.000  C
  C49      1.0000 0.03690  0.52668  0.90974  Biso   1.000  C
  C50      1.0000 0.90974  0.52668  0.03690  Biso   1.000  C
  C51      1.0000 0.52668  0.03690  0.52668  Biso   1.000  C
  C52      1.0000 0.52668  0.90974  0.52668  Biso   1.000  C
  C53      1.0000 0.90974  0.52668  0.52668  Biso   1.000  C
  C54      1.0000 0.03690  0.52668  0.52668  Biso   1.000  C
  C55      1.0000 0.52668  0.03690  0.90974  Biso   1.000  C
  C56      1.0000 0.52668  0.90974  0.03690  Biso   1.000  C
  C57      1.0000 0.38870  0.38870  0.11130  Biso   1.000  C
  C58      1.0000 0.44580  0.44580  0.05420  Biso   1.000  C
  C59      1.0000 0.11130  0.11130  0.38870  Biso   1.000  C
  C60      1.0000 0.05420  0.05420  0.44580  Biso   1.000  C
  C61      1.0000 0.38870  0.11130  0.11130  Biso   1.000  C
  C62      1.0000 0.44580  0.05420  0.05420  Biso   1.000  C
  C63      1.0000 0.11130  0.38870  0.38870  Biso   1.000  C
  C64      1.0000 0.05420  0.44580  0.44580  Biso   1.000  C
  C65      1.0000 0.38870  0.11130  0.38870  Biso   1.000  C
  C66      1.0000 0.44580  0.05420  0.44580  Biso   1.000  C
  C67      1.0000 0.11130  0.38870  0.11130  Biso   1.000  C
  C68      1.0000 0.05420  0.44580  0.05420  Biso   1.000  C
  C69      1.0000 0.61130  0.61130  0.88870  Biso   1.000  C
  C70      1.0000 0.55420  0.55420  0.94580  Biso   1.000  C
  C71      1.0000 0.88870  0.88870  0.61130  Biso   1.000  C
  C72      1.0000 0.94580  0.94580  0.55420  Biso   1.000  C
  C73      1.0000 0.88870  0.61130  0.88870  Biso   1.000  C
  C74      1.0000 0.94580  0.55420  0.94580  Biso   1.000  C
  C75      1.0000 0.61130  0.88870  0.61130  Biso   1.000  C
  C76      1.0000 0.55420  0.94580  0.55420  Biso   1.000  C
  C77      1.0000 0.88870  0.61130  0.61130  Biso   1.000  C
  C78      1.0000 0.94580  0.55420  0.55420  Biso   1.000  C
  C79      1.0000 0.61130  0.88870  0.88870  Biso   1.000  C
  C80      1.0000 0.55420  0.94580  0.94580  Biso   1.000  C
  C81      1.0000 0.25000  0.25000  0.25000  Biso   1.000  C
  C82      1.0000 0.75000  0.75000  0.75000  Biso   1.000  C
  C83      1.0000 0.36613  0.36613  0.07303  Biso   1.000  C
  C84      1.0000 0.36613  0.36613  0.19471  Biso   1.000  C
  C85      1.0000 0.07303  0.19471  0.36613  Biso   1.000  C
  C86      1.0000 0.19471  0.07303  0.36613  Biso   1.000  C
  C87      1.0000 0.36613  0.07303  0.19471  Biso   1.000  C
  C88      1.0000 0.36613  0.19471  0.07303  Biso   1.000  C
  C89      1.0000 0.07303  0.36613  0.36613  Biso   1.000  C
  C90      1.0000 0.19471  0.36613  0.36613  Biso   1.000  C
  C91      1.0000 0.36613  0.19471  0.36613  Biso   1.000  C
  C92      1.0000 0.36613  0.07303  0.36613  Biso   1.000  C
  C93      1.0000 0.07303  0.36613  0.19471  Biso   1.000  C
  C94      1.0000 0.19471  0.36613  0.07303  Biso   1.000  C
  C95      1.0000 0.63387  0.63387  0.92697  Biso   1.000  C
  C96      1.0000 0.63387  0.63387  0.80529  Biso   1.000  C
  C97      1.0000 0.80529  0.92697  0.63387  Biso   1.000  C
  C98      1.0000 0.92697  0.80529  0.63387  Biso   1.000  C
  C99      1.0000 0.92697  0.63387  0.80529  Biso   1.000  C
  C100     1.0000 0.80529  0.63387  0.92697  Biso   1.000  C
  C101     1.0000 0.63387  0.92697  0.63387  Biso   1.000  C
  C102     1.0000 0.63387  0.80529  0.63387  Biso   1.000  C
  C103     1.0000 0.80529  0.63387  0.63387  Biso   1.000  C
  C104     1.0000 0.92697  0.63387  0.63387  Biso   1.000  C
  C105     1.0000 0.63387  0.92697  0.80529  Biso   1.000  C
  C106     1.0000 0.63387  0.80529  0.92697  Biso   1.000  C
  O1       1.0000 0.57774  0.42223  0.42221  Biso   1.000  O
  O2       1.0000 0.13836  0.84466  0.01669  Biso   1.000  O
  O3       1.0000 0.13836  0.01690  0.01669  Biso   1.000  O
  O4       1.0000 0.57774  0.59448  0.42221  Biso   1.000  O
  O5       1.0000 0.57770  0.42216  0.59467  Biso   1.000  O
  O6       1.0000 0.74977  0.42241  0.42208  Biso   1.000  O
  O7       1.0000 0.13840  0.01698  0.84423  Biso   1.000  O
  O8       1.0000 0.96634  0.01673  0.01682  Biso   1.000  O
  O9       1.0000 0.39775  0.26678  0.79309  Biso   1.000  O
  O10      1.0000 0.39681  0.26832  0.55751  Biso   1.000  O
  O11      1.0000 0.39394  0.55757  0.26911  Biso   1.000  O
  O12      1.0000 0.31836  0.88016  0.64581  Biso   1.000  O
  O13      1.0000 0.31930  0.64509  0.88139  Biso   1.000  O
  O14      1.0000 0.32217  0.64311  0.16979  Biso   1.000  O
  O15      1.0000 0.31836  0.17236  0.64581  Biso   1.000  O
  O16      1.0000 0.31930  0.17082  0.88139  Biso   1.000  O
  O17      1.0000 0.32217  0.88157  0.16979  Biso   1.000  O
  O18      1.0000 0.39775  0.55898  0.79309  Biso   1.000  O
  O19      1.0000 0.39681  0.79404  0.55751  Biso   1.000  O
  O20      1.0000 0.39394  0.79603  0.26911  Biso   1.000  O
  O21      1.0000 0.49124  0.33477  0.59911  Biso   1.000  O
  O22      1.0000 0.42773  0.27077  0.65791  Biso   1.000  O
  O23      1.0000 0.38222  0.24555  0.76693  Biso   1.000  O
  O24      1.0000 0.38226  0.24698  0.62025  Biso   1.000  O
  O25      1.0000 0.75067  0.33538  0.33548  Biso   1.000  O
  O26      1.0000 0.38067  0.62020  0.24561  Biso   1.000  O
  O27      1.0000 0.22487  0.84757  0.83980  Biso   1.000  O
  O28      1.0000 0.28838  0.77885  0.78100  Biso   1.000  O
  O29      1.0000 0.33389  0.81724  0.67197  Biso   1.000  O
  O30      1.0000 0.33385  0.67194  0.81866  Biso   1.000  O
  O31      1.0000 0.96543  0.84401  0.10342  Biso   1.000  O
  O32      1.0000 0.33544  0.66897  0.19330  Biso   1.000  O
  O33      1.0000 0.22487  0.10436  0.83980  Biso   1.000  O
  O34      1.0000 0.28838  0.16837  0.78100  Biso   1.000  O
  O35      1.0000 0.33389  0.19359  0.67197  Biso   1.000  O
  O36      1.0000 0.33385  0.19216  0.81866  Biso   1.000  O
  O37      1.0000 0.96543  0.10376  0.10342  Biso   1.000  O
  O38      1.0000 0.33544  0.81894  0.19330  Biso   1.000  O
  O39      1.0000 0.49124  0.59157  0.59911  Biso   1.000  O
  O40      1.0000 0.42773  0.66029  0.65791  Biso   1.000  O
  O41      1.0000 0.38222  0.62190  0.76693  Biso   1.000  O
  O42      1.0000 0.38226  0.76720  0.62025  Biso   1.000  O
  O43      1.0000 0.75068  0.59513  0.33548  Biso   1.000  O
  O44      1.0000 0.38067  0.77017  0.24561  Biso   1.000  O
  O45      1.0000 0.74872  0.33448  0.59901  Biso   1.000  O
  O46      1.0000 0.48788  0.59621  0.33637  Biso   1.000  O
  O47      1.0000 0.42751  0.66051  0.26813  Biso   1.000  O
  O48      1.0000 0.96739  0.10466  0.83990  Biso   1.000  O
  O49      1.0000 0.22823  0.84293  0.10254  Biso   1.000  O
  O50      1.0000 0.28860  0.77863  0.17078  Biso   1.000  O
  O51      1.0000 0.50854  0.35090  0.64257  Biso   1.000  O
  O52      1.0000 0.50657  0.35012  0.51710  Biso   1.000  O
  O53      1.0000 0.79944  0.35071  0.35161  Biso   1.000  O
  O54      1.0000 0.67035  0.35052  0.35151  Biso   1.000  O
  O55      1.0000 0.50735  0.51539  0.34994  Biso   1.000  O
  O56      1.0000 0.20757  0.92445  0.79634  Biso   1.000  O
  O57      1.0000 0.20954  0.79624  0.92181  Biso   1.000  O
  O58      1.0000 0.91667  0.92424  0.08730  Biso   1.000  O
  O59      1.0000 0.04576  0.79486  0.08739  Biso   1.000  O
  O60      1.0000 0.20876  0.79515  0.08897  Biso   1.000  O
  O61      1.0000 0.20757  0.08824  0.79634  Biso   1.000  O
  O62      1.0000 0.20954  0.08902  0.92181  Biso   1.000  O
  O63      1.0000 0.91667  0.08842  0.08730  Biso   1.000  O
  O64      1.0000 0.04576  0.08862  0.08739  Biso   1.000  O
  O65      1.0000 0.20876  0.92375  0.08897  Biso   1.000  O
  O66      1.0000 0.50854  0.51469  0.64257  Biso   1.000  O
  O67      1.0000 0.50657  0.64290  0.51710  Biso   1.000  O
  O68      1.0000 0.79944  0.51490  0.35161  Biso   1.000  O
  O69      1.0000 0.67035  0.64428  0.35151  Biso   1.000  O
  O70      1.0000 0.50735  0.64399  0.34994  Biso   1.000  O
  O71      1.0000 0.61933  0.46662  0.46410  Biso   1.000  O
  O72      1.0000 0.67066  0.35099  0.64404  Biso   1.000  O
  O73      1.0000 0.79915  0.35110  0.51533  Biso   1.000  O
  O74      1.0000 0.09677  0.97252  0.97481  Biso   1.000  O
  O75      1.0000 0.04545  0.08815  0.79486  Biso   1.000  O
  O76      1.0000 0.91696  0.08804  0.92358  Biso   1.000  O
