data_image0
_cell_length_a       18.2751
_cell_length_b       18.2751
_cell_length_c       18.2751
_cell_angle_alpha    60
_cell_angle_beta     60
_cell_angle_gamma    60

_symmetry_space_group_name_H-M    "P 1"
_symmetry_int_tables_number       1

loop_
  _symmetry_equiv_pos_as_xyz
  'x, y, z'

loop_
  _atom_site_label
  _atom_site_occupancy
  _atom_site_fract_x
  _atom_site_fract_y
  _atom_site_fract_z
  _atom_site_thermal_displace_type
  _atom_site_B_iso_or_equiv
  _atom_site_type_symbol
  Zn1      1.0000 0.29350  0.29349  0.11952  Biso   1.000  Zn
  Zn2      1.0000 0.29350  0.29349  0.29349  Biso   1.000  Zn
  Zn3      1.0000 0.11953  0.29349  0.29349  Biso   1.000  Zn
  Zn4      1.0000 0.29350  0.11952  0.29349  Biso   1.000  Zn
  Zn5      1.0000 0.70650  0.70651  0.88048  Biso   1.000  Zn
  Zn6      1.0000 0.70650  0.70651  0.70651  Biso   1.000  Zn
  Zn7      1.0000 0.70650  0.88048  0.70651  Biso   1.000  Zn
  Zn8      1.0000 0.88047  0.70651  0.70651  Biso   1.000  Zn
  H1       1.0000 0.45530  0.45530  0.93570  Biso   1.000  H
  H2       1.0000 0.45530  0.45530  0.15370  Biso   1.000  H
  H3       1.0000 0.93570  0.15370  0.45530  Biso   1.000  H
  H4       1.0000 0.15370  0.93570  0.45530  Biso   1.000  H
  H5       1.0000 0.45530  0.93570  0.15370  Biso   1.000  H
  H6       1.0000 0.45530  0.15370  0.93570  Biso   1.000  H
  H7       1.0000 0.93570  0.45530  0.45530  Biso   1.000  H
  H8       1.0000 0.15370  0.45530  0.45530  Biso   1.000  H
  H9       1.0000 0.45530  0.15370  0.45530  Biso   1.000  H
  H10      1.0000 0.45530  0.93570  0.45530  Biso   1.000  H
  H11      1.0000 0.93570  0.45530  0.15370  Biso   1.000  H
  H12      1.0000 0.15370  0.45530  0.93570  Biso   1.000  H
  H13      1.0000 0.54470  0.54470  0.06430  Biso   1.000  H
  H14      1.0000 0.54470  0.54470  0.84630  Biso   1.000  H
  H15      1.0000 0.84630  0.06430  0.54470  Biso   1.000  H
  H16      1.0000 0.06430  0.84630  0.54470  Biso   1.000  H
  H17      1.0000 0.06430  0.54470  0.84630  Biso   1.000  H
  H18      1.0000 0.84630  0.54470  0.06430  Biso   1.000  H
  H19      1.0000 0.54470  0.06430  0.54470  Biso   1.000  H
  H20      1.0000 0.54470  0.84630  0.54470  Biso   1.000  H
  H21      1.0000 0.84630  0.54470  0.54470  Biso   1.000  H
  H22      1.0000 0.06430  0.54470  0.54470  Biso   1.000  H
  H23      1.0000 0.54470  0.06430  0.84630  Biso   1.000  H
  H24      1.0000 0.54470  0.84630  0.06430  Biso   1.000  H
  C1       1.0000 0.47331  0.47331  0.96231  Biso   1.000  C
  C2       1.0000 0.47331  0.47331  0.09107  Biso   1.000  C
  C3       1.0000 0.96231  0.09107  0.47331  Biso   1.000  C
  C4       1.0000 0.09107  0.96231  0.47331  Biso   1.000  C
  C5       1.0000 0.47331  0.96231  0.09107  Biso   1.000  C
  C6       1.0000 0.47331  0.09107  0.96231  Biso   1.000  C
  C7       1.0000 0.96231  0.47331  0.47331  Biso   1.000  C
  C8       1.0000 0.09107  0.47331  0.47331  Biso   1.000  C
  C9       1.0000 0.47331  0.09107  0.47331  Biso   1.000  C
  C10      1.0000 0.47331  0.96231  0.47331  Biso   1.000  C
  C11      1.0000 0.96231  0.47331  0.09107  Biso   1.000  C
  C12      1.0000 0.09107  0.47331  0.96231  Biso   1.000  C
  C13      1.0000 0.52669  0.52669  0.03769  Biso   1.000  C
  C14      1.0000 0.52669  0.52669  0.90893  Biso   1.000  C
  C15      1.0000 0.90893  0.03769  0.52669  Biso   1.000  C
  C16      1.0000 0.03769  0.90893  0.52669  Biso   1.000  C
  C17      1.0000 0.03769  0.52669  0.90893  Biso   1.000  C
  C18      1.0000 0.90893  0.52669  0.03769  Biso   1.000  C
  C19      1.0000 0.52669  0.03769  0.52669  Biso   1.000  C
  C20      1.0000 0.52669  0.90893  0.52669  Biso   1.000  C
  C21      1.0000 0.90893  0.52669  0.52669  Biso   1.000  C
  C22      1.0000 0.03769  0.52669  0.52669  Biso   1.000  C
  C23      1.0000 0.52669  0.03769  0.90893  Biso   1.000  C
  C24      1.0000 0.52669  0.90893  0.03769  Biso   1.000  C
  C25      1.0000 0.38853  0.38853  0.11147  Biso   1.000  C
  C26      1.0000 0.44625  0.44625  0.05375  Biso   1.000  C
  C27      1.0000 0.11147  0.11147  0.38853  Biso   1.000  C
  C28      1.0000 0.05375  0.05375  0.44625  Biso   1.000  C
  C29      1.0000 0.38853  0.11147  0.11147  Biso   1.000  C
  C30      1.0000 0.44625  0.05375  0.05375  Biso   1.000  C
  C31      1.0000 0.11147  0.38853  0.38853  Biso   1.000  C
  C32      1.0000 0.05375  0.44625  0.44625  Biso   1.000  C
  C33      1.0000 0.38853  0.11147  0.38853  Biso   1.000  C
  C34      1.0000 0.44625  0.05375  0.44625  Biso   1.000  C
  C35      1.0000 0.11147  0.38853  0.11147  Biso   1.000  C
  C36      1.0000 0.05375  0.44625  0.05375  Biso   1.000  C
  C37      1.0000 0.61147  0.61147  0.88853  Biso   1.000  C
  C38      1.0000 0.55375  0.55375  0.94625  Biso   1.000  C
  C39      1.0000 0.88853  0.88853  0.61147  Biso   1.000  C
  C40      1.0000 0.94625  0.94625  0.55375  Biso   1.000  C
  C41      1.0000 0.88853  0.61147  0.88853  Biso   1.000  C
  C42      1.0000 0.94625  0.55375  0.94625  Biso   1.000  C
  C43      1.0000 0.61147  0.88853  0.61147  Biso   1.000  C
  C44      1.0000 0.55375  0.94625  0.55375  Biso   1.000  C
  C45      1.0000 0.88853  0.61147  0.61147  Biso   1.000  C
  C46      1.0000 0.94625  0.55375  0.55375  Biso   1.000  C
  C47      1.0000 0.61147  0.88853  0.88853  Biso   1.000  C
  C48      1.0000 0.55375  0.94625  0.94625  Biso   1.000  C
  O1       1.0000 0.25000  0.25000  0.25000  Biso   1.000  O
  O2       1.0000 0.75000  0.75000  0.75000  Biso   1.000  O
  O3       1.0000 0.36609  0.36609  0.07299  Biso   1.000  O
  O4       1.0000 0.36609  0.36609  0.19483  Biso   1.000  O
  O5       1.0000 0.07299  0.19483  0.36609  Biso   1.000  O
  O6       1.0000 0.19483  0.07299  0.36609  Biso   1.000  O
  O7       1.0000 0.36609  0.07299  0.19483  Biso   1.000  O
  O8       1.0000 0.36609  0.19483  0.07299  Biso   1.000  O
  O9       1.0000 0.07299  0.36609  0.36609  Biso   1.000  O
  O10      1.0000 0.19483  0.36609  0.36609  Biso   1.000  O
  O11      1.0000 0.36609  0.19483  0.36609  Biso   1.000  O
  O12      1.0000 0.36609  0.07299  0.36609  Biso   1.000  O
  O13      1.0000 0.07299  0.36609  0.19483  Biso   1.000  O
  O14      1.0000 0.19483  0.36609  0.07299  Biso   1.000  O
  O15      1.0000 0.63391  0.63391  0.92701  Biso   1.000  O
  O16      1.0000 0.63391  0.63391  0.80517  Biso   1.000  O
  O17      1.0000 0.80517  0.92701  0.63391  Biso   1.000  O
  O18      1.0000 0.92701  0.80517  0.63391  Biso   1.000  O
  O19      1.0000 0.92701  0.63391  0.80517  Biso   1.000  O
  O20      1.0000 0.80517  0.63391  0.92701  Biso   1.000  O
  O21      1.0000 0.63391  0.92701  0.63391  Biso   1.000  O
  O22      1.0000 0.63391  0.80517  0.63391  Biso   1.000  O
  O23      1.0000 0.80517  0.63391  0.63391  Biso   1.000  O
  O24      1.0000 0.92701  0.63391  0.63391  Biso   1.000  O
  O25      1.0000 0.63391  0.92701  0.80517  Biso   1.000  O
  O26      1.0000 0.63391  0.80517  0.92701  Biso   1.000  O
  Zn9      1.0000 0.17190  0.97200  0.87017  Biso   1.000  Zn
  Zn10     1.0000 0.58601  0.38608  0.45613  Biso   1.000  Zn
  Zn11     1.0000 0.41210  0.55999  0.45613  Biso   1.000  Zn
  Zn12     1.0000 0.99800  0.14591  0.87017  Biso   1.000  Zn
  Zn13     1.0000 0.99780  0.97180  0.04424  Biso   1.000  Zn
  Zn14     1.0000 0.99793  0.97193  0.86996  Biso   1.000  Zn
  Zn15     1.0000 0.58620  0.56019  0.28206  Biso   1.000  Zn
  Zn16     1.0000 0.58607  0.56006  0.45634  Biso   1.000  Zn
  H25      1.0000 0.83570  0.33093  0.01122  Biso   1.000  H
  H26      1.0000 0.83259  0.11280  0.22460  Biso   1.000  H
  H27      1.0000 0.83931  0.32895  0.70945  Biso   1.000  H
  H28      1.0000 0.83880  0.11163  0.70416  Biso   1.000  H
  H29      1.0000 0.35606  0.11222  0.71124  Biso   1.000  H
  H30      1.0000 0.22706  0.72230  0.31508  Biso   1.000  H
  H31      1.0000 0.44521  0.72540  0.10170  Biso   1.000  H
  H32      1.0000 0.22903  0.71869  0.61685  Biso   1.000  H
  H33      1.0000 0.44638  0.71919  0.62214  Biso   1.000  H
  H34      1.0000 0.44578  0.20194  0.61505  Biso   1.000  H
  H35      1.0000 0.74830  0.20106  0.31508  Biso   1.000  H
  H36      1.0000 0.75141  0.41920  0.10170  Biso   1.000  H
  H37      1.0000 0.74469  0.20304  0.61685  Biso   1.000  H
  H38      1.0000 0.74520  0.42037  0.62214  Biso   1.000  H
  H39      1.0000 0.22794  0.41977  0.61505  Biso   1.000  H
  H40      1.0000 0.35695  0.80969  0.01122  Biso   1.000  H
  H41      1.0000 0.13879  0.80659  0.22460  Biso   1.000  H
  H42      1.0000 0.35497  0.81330  0.70945  Biso   1.000  H
  H43      1.0000 0.13762  0.81280  0.70416  Biso   1.000  H
  H44      1.0000 0.13823  0.33005  0.71124  Biso   1.000  H
  H45      1.0000 0.83699  0.81099  0.01052  Biso   1.000  H
  H46      1.0000 0.83429  0.80828  0.22849  Biso   1.000  H
  H47      1.0000 0.74701  0.72100  0.31578  Biso   1.000  H
  H48      1.0000 0.74972  0.72371  0.09781  Biso   1.000  H
  C49      1.0000 0.90351  0.15559  0.04982  Biso   1.000  C
  C50      1.0000 0.84486  0.21244  0.11008  Biso   1.000  C
  C51      1.0000 0.81884  0.30449  0.07337  Biso   1.000  C
  C52      1.0000 0.81703  0.17484  0.19906  Biso   1.000  C
  C53      1.0000 0.90393  0.15441  0.77389  Biso   1.000  C
  C54      1.0000 0.84818  0.20997  0.71713  Biso   1.000  C
  C55      1.0000 0.82046  0.30332  0.69199  Biso   1.000  C
  C56      1.0000 0.82005  0.17347  0.68860  Biso   1.000  C
  C57      1.0000 0.32983  0.17416  0.69179  Biso   1.000  C
  C58      1.0000 0.40241  0.65448  0.27647  Biso   1.000  C
  C59      1.0000 0.34556  0.71313  0.21622  Biso   1.000  C
  C60      1.0000 0.25349  0.73916  0.25293  Biso   1.000  C
  C61      1.0000 0.38317  0.74096  0.12724  Biso   1.000  C
  C62      1.0000 0.40359  0.65406  0.55241  Biso   1.000  C
  C63      1.0000 0.34804  0.70982  0.60917  Biso   1.000  C
  C64      1.0000 0.25467  0.73754  0.63431  Biso   1.000  C
  C65      1.0000 0.38454  0.73794  0.63770  Biso   1.000  C
  C66      1.0000 0.38384  0.22818  0.63451  Biso   1.000  C
  C67      1.0000 0.68049  0.37640  0.27647  Biso   1.000  C
  C68      1.0000 0.73914  0.31955  0.21622  Biso   1.000  C
  C69      1.0000 0.76516  0.22750  0.25293  Biso   1.000  C
  C70      1.0000 0.76697  0.35715  0.12724  Biso   1.000  C
  C71      1.0000 0.68008  0.37758  0.55241  Biso   1.000  C
  C72      1.0000 0.73583  0.32202  0.60917  Biso   1.000  C
  C73      1.0000 0.76354  0.22867  0.63431  Biso   1.000  C
  C74      1.0000 0.76395  0.35852  0.63770  Biso   1.000  C
  C75      1.0000 0.25417  0.35783  0.63451  Biso   1.000  C
  C76      1.0000 0.18159  0.87751  0.04982  Biso   1.000  C
  C77      1.0000 0.23844  0.81886  0.11008  Biso   1.000  C
  C78      1.0000 0.33051  0.79283  0.07337  Biso   1.000  C
  C79      1.0000 0.20083  0.79103  0.19906  Biso   1.000  C
  C80      1.0000 0.18041  0.87793  0.77389  Biso   1.000  C
  C81      1.0000 0.23597  0.82217  0.71713  Biso   1.000  C
  C82      1.0000 0.32934  0.79445  0.69199  Biso   1.000  C
  C83      1.0000 0.19946  0.79405  0.68860  Biso   1.000  C
  C84      1.0000 0.20017  0.30382  0.69179  Biso   1.000  C
  C85      1.0000 0.90182  0.87582  0.05641  Biso   1.000  C
  C86      1.0000 0.84586  0.81986  0.10928  Biso   1.000  C
  C87      1.0000 0.81933  0.79333  0.07237  Biso   1.000  C
  C88      1.0000 0.81693  0.79093  0.20106  Biso   1.000  C
  C89      1.0000 0.17751  0.15152  0.77908  Biso   1.000  C
  C90      1.0000 0.23756  0.21157  0.71723  Biso   1.000  C
  C91      1.0000 0.68218  0.65617  0.26989  Biso   1.000  C
  C92      1.0000 0.73814  0.71213  0.21702  Biso   1.000  C
  C93      1.0000 0.76467  0.73866  0.25393  Biso   1.000  C
  C94      1.0000 0.76707  0.74106  0.12524  Biso   1.000  C
  C95      1.0000 0.40649  0.38047  0.54722  Biso   1.000  C
  C96      1.0000 0.34644  0.32042  0.60907  Biso   1.000  C
  O27      1.0000 0.92356  0.07011  0.09322  Biso   1.000  O
  O28      1.0000 0.92596  0.19599  0.96732  Biso   1.000  O
  O29      1.0000 0.92328  0.06903  0.79913  Biso   1.000  O
  O30      1.0000 0.92547  0.19451  0.79634  Biso   1.000  O
  O31      1.0000 0.21980  0.06873  0.79863  Biso   1.000  O
  O32      1.0000 0.48789  0.63443  0.23308  Biso   1.000  O
  O33      1.0000 0.36201  0.63203  0.35897  Biso   1.000  O
  O34      1.0000 0.48897  0.63472  0.52717  Biso   1.000  O
  O35      1.0000 0.36350  0.63252  0.52996  Biso   1.000  O
  O36      1.0000 0.48928  0.33818  0.52767  Biso   1.000  O
  O37      1.0000 0.66044  0.46188  0.23308  Biso   1.000  O
  O38      1.0000 0.65804  0.33600  0.35897  Biso   1.000  O
  O39      1.0000 0.66073  0.46296  0.52717  Biso   1.000  O
  O40      1.0000 0.65853  0.33748  0.52996  Biso   1.000  O
  O41      1.0000 0.36420  0.46326  0.52767  Biso   1.000  O
  O42      1.0000 0.09611  0.89756  0.09322  Biso   1.000  O
  O43      1.0000 0.22199  0.89996  0.96732  Biso   1.000  O
  O44      1.0000 0.09503  0.89728  0.79913  Biso   1.000  O
  O45      1.0000 0.22050  0.89947  0.79634  Biso   1.000  O
  O46      1.0000 0.09473  0.19381  0.79863  Biso   1.000  O
  O47      1.0000 0.04126  0.01526  0.91395  Biso   1.000  O
  O48      1.0000 0.92496  0.89896  0.09222  Biso   1.000  O
  O49      1.0000 0.92337  0.89737  0.97201  Biso   1.000  O
  O50      1.0000 0.54274  0.51673  0.41235  Biso   1.000  O
  O51      1.0000 0.65905  0.63304  0.23408  Biso   1.000  O
  O52      1.0000 0.66063  0.63463  0.35429  Biso   1.000  O
