data_image0
_cell_length_a       18.2455
_cell_length_b       18.2455
_cell_length_c       18.2455
_cell_angle_alpha    60
_cell_angle_beta     60
_cell_angle_gamma    60

_symmetry_space_group_name_H-M    "P 1"
_symmetry_int_tables_number       1

loop_
  _symmetry_equiv_pos_as_xyz
  'x, y, z'

loop_
  _atom_site_label
  _atom_site_occupancy
  _atom_site_fract_x
  _atom_site_fract_y
  _atom_site_fract_z
  _atom_site_thermal_displace_type
  _atom_site_B_iso_or_equiv
  _atom_site_type_symbol
  Zn1      1.0000 0.29354  0.29354  0.11938  Biso   1.000  Zn
  Zn2      1.0000 0.29354  0.29354  0.29354  Biso   1.000  Zn
  Zn3      1.0000 0.11938  0.29354  0.29354  Biso   1.000  Zn
  Zn4      1.0000 0.29354  0.11938  0.29354  Biso   1.000  Zn
  Zn5      1.0000 0.70646  0.70646  0.88062  Biso   1.000  Zn
  Zn6      1.0000 0.70646  0.70646  0.70646  Biso   1.000  Zn
  Zn7      1.0000 0.70646  0.88062  0.70646  Biso   1.000  Zn
  Zn8      1.0000 0.88062  0.70646  0.70646  Biso   1.000  Zn
  H1       1.0000 0.45580  0.45580  0.93620  Biso   1.000  H
  H2       1.0000 0.45580  0.45580  0.15220  Biso   1.000  H
  H3       1.0000 0.93620  0.15220  0.45580  Biso   1.000  H
  H4       1.0000 0.15220  0.93620  0.45580  Biso   1.000  H
  H5       1.0000 0.45580  0.93620  0.15220  Biso   1.000  H
  H6       1.0000 0.45580  0.15220  0.93620  Biso   1.000  H
  H7       1.0000 0.93620  0.45580  0.45580  Biso   1.000  H
  H8       1.0000 0.15220  0.45580  0.45580  Biso   1.000  H
  H9       1.0000 0.45580  0.15220  0.45580  Biso   1.000  H
  H10      1.0000 0.45580  0.93620  0.45580  Biso   1.000  H
  H11      1.0000 0.93620  0.45580  0.15220  Biso   1.000  H
  H12      1.0000 0.15220  0.45580  0.93620  Biso   1.000  H
  H13      1.0000 0.54420  0.54420  0.06380  Biso   1.000  H
  H14      1.0000 0.54420  0.54420  0.84780  Biso   1.000  H
  H15      1.0000 0.84780  0.06380  0.54420  Biso   1.000  H
  H16      1.0000 0.06380  0.84780  0.54420  Biso   1.000  H
  H17      1.0000 0.06380  0.54420  0.84780  Biso   1.000  H
  H18      1.0000 0.84780  0.54420  0.06380  Biso   1.000  H
  H19      1.0000 0.54420  0.06380  0.54420  Biso   1.000  H
  H20      1.0000 0.54420  0.84780  0.54420  Biso   1.000  H
  H21      1.0000 0.84780  0.54420  0.54420  Biso   1.000  H
  H22      1.0000 0.06380  0.54420  0.54420  Biso   1.000  H
  H23      1.0000 0.54420  0.06380  0.84780  Biso   1.000  H
  H24      1.0000 0.54420  0.84780  0.06380  Biso   1.000  H
  C1       1.0000 0.47345  0.47345  0.96303  Biso   1.000  C
  C2       1.0000 0.47345  0.47345  0.09007  Biso   1.000  C
  C3       1.0000 0.96303  0.09007  0.47345  Biso   1.000  C
  C4       1.0000 0.09007  0.96303  0.47345  Biso   1.000  C
  C5       1.0000 0.47345  0.96303  0.09007  Biso   1.000  C
  C6       1.0000 0.47345  0.09007  0.96303  Biso   1.000  C
  C7       1.0000 0.96303  0.47345  0.47345  Biso   1.000  C
  C8       1.0000 0.09007  0.47345  0.47345  Biso   1.000  C
  C9       1.0000 0.47345  0.09007  0.47345  Biso   1.000  C
  C10      1.0000 0.47345  0.96303  0.47345  Biso   1.000  C
  C11      1.0000 0.96303  0.47345  0.09007  Biso   1.000  C
  C12      1.0000 0.09007  0.47345  0.96303  Biso   1.000  C
  C13      1.0000 0.52655  0.52655  0.03697  Biso   1.000  C
  C14      1.0000 0.52655  0.52655  0.90993  Biso   1.000  C
  C15      1.0000 0.90993  0.03697  0.52655  Biso   1.000  C
  C16      1.0000 0.03697  0.90993  0.52655  Biso   1.000  C
  C17      1.0000 0.03697  0.52655  0.90993  Biso   1.000  C
  C18      1.0000 0.90993  0.52655  0.03697  Biso   1.000  C
  C19      1.0000 0.52655  0.03697  0.52655  Biso   1.000  C
  C20      1.0000 0.52655  0.90993  0.52655  Biso   1.000  C
  C21      1.0000 0.90993  0.52655  0.52655  Biso   1.000  C
  C22      1.0000 0.03697  0.52655  0.52655  Biso   1.000  C
  C23      1.0000 0.52655  0.03697  0.90993  Biso   1.000  C
  C24      1.0000 0.52655  0.90993  0.03697  Biso   1.000  C
  C25      1.0000 0.38857  0.38857  0.11143  Biso   1.000  C
  C26      1.0000 0.44620  0.44620  0.05380  Biso   1.000  C
  C27      1.0000 0.11143  0.11143  0.38857  Biso   1.000  C
  C28      1.0000 0.05380  0.05380  0.44620  Biso   1.000  C
  C29      1.0000 0.38857  0.11143  0.11143  Biso   1.000  C
  C30      1.0000 0.44620  0.05380  0.05380  Biso   1.000  C
  C31      1.0000 0.11143  0.38857  0.38857  Biso   1.000  C
  C32      1.0000 0.05380  0.44620  0.44620  Biso   1.000  C
  C33      1.0000 0.38857  0.11143  0.38857  Biso   1.000  C
  C34      1.0000 0.44620  0.05380  0.44620  Biso   1.000  C
  C35      1.0000 0.11143  0.38857  0.11143  Biso   1.000  C
  C36      1.0000 0.05380  0.44620  0.05380  Biso   1.000  C
  C37      1.0000 0.61143  0.61143  0.88857  Biso   1.000  C
  C38      1.0000 0.55380  0.55380  0.94620  Biso   1.000  C
  C39      1.0000 0.88857  0.88857  0.61143  Biso   1.000  C
  C40      1.0000 0.94620  0.94620  0.55380  Biso   1.000  C
  C41      1.0000 0.88857  0.61143  0.88857  Biso   1.000  C
  C42      1.0000 0.94620  0.55380  0.94620  Biso   1.000  C
  C43      1.0000 0.61143  0.88857  0.61143  Biso   1.000  C
  C44      1.0000 0.55380  0.94620  0.55380  Biso   1.000  C
  C45      1.0000 0.88857  0.61143  0.61143  Biso   1.000  C
  C46      1.0000 0.94620  0.55380  0.55380  Biso   1.000  C
  C47      1.0000 0.61143  0.88857  0.88857  Biso   1.000  C
  C48      1.0000 0.55380  0.94620  0.94620  Biso   1.000  C
  O1       1.0000 0.25000  0.25000  0.25000  Biso   1.000  O
  O2       1.0000 0.75000  0.75000  0.75000  Biso   1.000  O
  O3       1.0000 0.36603  0.36603  0.07311  Biso   1.000  O
  O4       1.0000 0.36603  0.36603  0.19483  Biso   1.000  O
  O5       1.0000 0.07311  0.19483  0.36603  Biso   1.000  O
  O6       1.0000 0.19483  0.07311  0.36603  Biso   1.000  O
  O7       1.0000 0.36603  0.07311  0.19483  Biso   1.000  O
  O8       1.0000 0.36603  0.19483  0.07311  Biso   1.000  O
  O9       1.0000 0.07311  0.36603  0.36603  Biso   1.000  O
  O10      1.0000 0.19483  0.36603  0.36603  Biso   1.000  O
  O11      1.0000 0.36603  0.19483  0.36603  Biso   1.000  O
  O12      1.0000 0.36603  0.07311  0.36603  Biso   1.000  O
  O13      1.0000 0.07311  0.36603  0.19483  Biso   1.000  O
  O14      1.0000 0.19483  0.36603  0.07311  Biso   1.000  O
  O15      1.0000 0.63397  0.63397  0.92689  Biso   1.000  O
  O16      1.0000 0.63397  0.63397  0.80517  Biso   1.000  O
  O17      1.0000 0.80517  0.92689  0.63397  Biso   1.000  O
  O18      1.0000 0.92689  0.80517  0.63397  Biso   1.000  O
  O19      1.0000 0.92689  0.63397  0.80517  Biso   1.000  O
  O20      1.0000 0.80517  0.63397  0.92689  Biso   1.000  O
  O21      1.0000 0.63397  0.92689  0.63397  Biso   1.000  O
  O22      1.0000 0.63397  0.80517  0.63397  Biso   1.000  O
  O23      1.0000 0.80517  0.63397  0.63397  Biso   1.000  O
  O24      1.0000 0.92689  0.63397  0.63397  Biso   1.000  O
  O25      1.0000 0.63397  0.92689  0.80517  Biso   1.000  O
  O26      1.0000 0.63397  0.80517  0.92689  Biso   1.000  O
  Zn9      1.0000 0.89517  0.75641  0.43241  Biso   1.000  Zn
  Zn10     1.0000 0.06995  0.75642  0.25763  Biso   1.000  Zn
  Zn11     1.0000 0.89517  0.75641  0.25764  Biso   1.000  Zn
  Zn12     1.0000 0.89518  0.93120  0.25763  Biso   1.000  Zn
  Zn13     1.0000 0.49182  0.34071  0.66716  Biso   1.000  Zn
  Zn14     1.0000 0.31704  0.34071  0.84194  Biso   1.000  Zn
  Zn15     1.0000 0.49182  0.16594  0.84194  Biso   1.000  Zn
  Zn16     1.0000 0.49182  0.34072  0.84194  Biso   1.000  Zn
  H25      1.0000 0.04053  0.59375  0.61240  Biso   1.000  H
  H26      1.0000 0.25612  0.59375  0.39681  Biso   1.000  H
  H27      1.0000 0.73867  0.89560  0.09496  Biso   1.000  H
  H28      1.0000 0.73867  0.11119  0.09496  Biso   1.000  H
  H29      1.0000 0.73867  0.11119  0.39681  Biso   1.000  H
  H30      1.0000 0.73867  0.89560  0.61240  Biso   1.000  H
  H31      1.0000 0.04053  0.59375  0.09496  Biso   1.000  H
  H32      1.0000 0.25612  0.59375  0.09496  Biso   1.000  H
  H33      1.0000 0.25612  0.89560  0.09496  Biso   1.000  H
  H34      1.0000 0.04053  0.11119  0.09496  Biso   1.000  H
  H35      1.0000 0.73867  0.59375  0.39681  Biso   1.000  H
  H36      1.0000 0.73867  0.59375  0.61240  Biso   1.000  H
  H37      1.0000 0.34647  0.50339  0.48716  Biso   1.000  H
  H38      1.0000 0.13088  0.50339  0.70275  Biso   1.000  H
  H39      1.0000 0.64832  0.98595  0.00461  Biso   1.000  H
  H40      1.0000 0.64832  0.20154  0.00461  Biso   1.000  H
  H41      1.0000 0.64832  0.50339  0.70275  Biso   1.000  H
  H42      1.0000 0.64832  0.50339  0.48716  Biso   1.000  H
  H43      1.0000 0.34647  0.98595  0.00461  Biso   1.000  H
  H44      1.0000 0.13088  0.20154  0.00461  Biso   1.000  H
  H45      1.0000 0.13088  0.50339  0.00461  Biso   1.000  H
  H46      1.0000 0.34647  0.50339  0.00461  Biso   1.000  H
  H47      1.0000 0.64832  0.98595  0.70275  Biso   1.000  H
  H48      1.0000 0.64832  0.20154  0.48716  Biso   1.000  H
  C49      1.0000 0.10426  0.57539  0.58537  Biso   1.000  C
  C50      1.0000 0.22909  0.57539  0.46054  Biso   1.000  C
  C51      1.0000 0.72032  0.95933  0.07661  Biso   1.000  C
  C52      1.0000 0.72032  0.08416  0.07661  Biso   1.000  C
  C53      1.0000 0.72032  0.08416  0.46054  Biso   1.000  C
  C54      1.0000 0.72032  0.95933  0.58537  Biso   1.000  C
  C55      1.0000 0.10426  0.57539  0.07661  Biso   1.000  C
  C56      1.0000 0.22909  0.57539  0.07661  Biso   1.000  C
  C57      1.0000 0.22909  0.95933  0.07661  Biso   1.000  C
  C58      1.0000 0.10426  0.08416  0.07661  Biso   1.000  C
  C59      1.0000 0.72032  0.57539  0.46054  Biso   1.000  C
  C60      1.0000 0.72032  0.57539  0.58537  Biso   1.000  C
  C61      1.0000 0.28274  0.52174  0.51419  Biso   1.000  C
  C62      1.0000 0.15791  0.52174  0.63902  Biso   1.000  C
  C63      1.0000 0.66667  0.01298  0.02296  Biso   1.000  C
  C64      1.0000 0.66667  0.13781  0.02296  Biso   1.000  C
  C65      1.0000 0.66667  0.52174  0.63902  Biso   1.000  C
  C66      1.0000 0.66667  0.52174  0.51419  Biso   1.000  C
  C67      1.0000 0.28274  0.01298  0.02296  Biso   1.000  C
  C68      1.0000 0.15791  0.13781  0.02296  Biso   1.000  C
  C69      1.0000 0.15791  0.52174  0.02296  Biso   1.000  C
  C70      1.0000 0.28274  0.52174  0.02296  Biso   1.000  C
  C71      1.0000 0.66667  0.01298  0.63902  Biso   1.000  C
  C72      1.0000 0.66667  0.13781  0.51419  Biso   1.000  C
  C73      1.0000 0.07815  0.66083  0.44061  Biso   1.000  C
  C74      1.0000 0.13650  0.60248  0.49896  Biso   1.000  C
  C75      1.0000 0.79959  0.93940  0.16204  Biso   1.000  C
  C76      1.0000 0.74124  0.99774  0.10369  Biso   1.000  C
  C77      1.0000 0.79959  0.93940  0.44061  Biso   1.000  C
  C78      1.0000 0.74124  0.99774  0.49896  Biso   1.000  C
  C79      1.0000 0.07815  0.66083  0.16204  Biso   1.000  C
  C80      1.0000 0.13650  0.60248  0.10369  Biso   1.000  C
  C81      1.0000 0.07815  0.93940  0.16204  Biso   1.000  C
  C82      1.0000 0.13650  0.99774  0.10369  Biso   1.000  C
  C83      1.0000 0.79959  0.66083  0.44061  Biso   1.000  C
  C84      1.0000 0.74124  0.60248  0.49896  Biso   1.000  C
  C85      1.0000 0.30884  0.43631  0.65896  Biso   1.000  C
  C86      1.0000 0.25049  0.49466  0.60061  Biso   1.000  C
  C87      1.0000 0.58741  0.15774  0.93752  Biso   1.000  C
  C88      1.0000 0.64576  0.09939  0.99587  Biso   1.000  C
  C89      1.0000 0.58741  0.43631  0.65896  Biso   1.000  C
  C90      1.0000 0.64576  0.49466  0.60061  Biso   1.000  C
  C91      1.0000 0.30884  0.15774  0.93752  Biso   1.000  C
  C92      1.0000 0.25049  0.09939  0.99587  Biso   1.000  C
  C93      1.0000 0.30884  0.43631  0.93752  Biso   1.000  C
  C94      1.0000 0.25049  0.49466  0.99587  Biso   1.000  C
  C95      1.0000 0.58741  0.15774  0.65896  Biso   1.000  C
  C96      1.0000 0.64576  0.09939  0.60061  Biso   1.000  C
  O27      1.0000 0.93887  0.80011  0.30133  Biso   1.000  O
  O28      1.0000 0.44813  0.29703  0.79824  Biso   1.000  O
  O29      1.0000 0.99434  0.68330  0.47947  Biso   1.000  O
  O30      1.0000 0.11701  0.68330  0.35680  Biso   1.000  O
  O31      1.0000 0.82206  0.85558  0.18452  Biso   1.000  O
  O32      1.0000 0.82206  0.97825  0.18452  Biso   1.000  O
  O33      1.0000 0.82206  0.97825  0.35680  Biso   1.000  O
  O34      1.0000 0.82206  0.85558  0.47947  Biso   1.000  O
  O35      1.0000 0.99434  0.68330  0.18452  Biso   1.000  O
  O36      1.0000 0.11701  0.68330  0.18452  Biso   1.000  O
  O37      1.0000 0.11701  0.85558  0.18452  Biso   1.000  O
  O38      1.0000 0.99434  0.97825  0.18452  Biso   1.000  O
  O39      1.0000 0.82206  0.68330  0.35680  Biso   1.000  O
  O40      1.0000 0.82206  0.68330  0.47947  Biso   1.000  O
  O41      1.0000 0.39266  0.41383  0.62010  Biso   1.000  O
  O42      1.0000 0.26998  0.41383  0.74277  Biso   1.000  O
  O43      1.0000 0.56493  0.11888  0.91505  Biso   1.000  O
  O44      1.0000 0.56493  0.24156  0.91505  Biso   1.000  O
  O45      1.0000 0.56493  0.41383  0.74277  Biso   1.000  O
  O46      1.0000 0.56493  0.41383  0.62010  Biso   1.000  O
  O47      1.0000 0.39266  0.11888  0.91505  Biso   1.000  O
  O48      1.0000 0.26998  0.24156  0.91505  Biso   1.000  O
  O49      1.0000 0.26998  0.41383  0.91505  Biso   1.000  O
  O50      1.0000 0.39266  0.41383  0.91505  Biso   1.000  O
  O51      1.0000 0.56493  0.11888  0.74277  Biso   1.000  O
  O52      1.0000 0.56493  0.24156  0.62010  Biso   1.000  O
