data_image0
_cell_length_a       18.2115
_cell_length_b       18.2115
_cell_length_c       18.2115
_cell_angle_alpha    60
_cell_angle_beta     60
_cell_angle_gamma    60

_symmetry_space_group_name_H-M    "P 1"
_symmetry_int_tables_number       1

loop_
  _symmetry_equiv_pos_as_xyz
  'x, y, z'

loop_
  _atom_site_label
  _atom_site_occupancy
  _atom_site_fract_x
  _atom_site_fract_y
  _atom_site_fract_z
  _atom_site_thermal_displace_type
  _atom_site_B_iso_or_equiv
  _atom_site_type_symbol
  C1       1.0000 0.29361  0.29361  0.11917  Biso   1.000  C
  C2       1.0000 0.29361  0.29361  0.29361  Biso   1.000  C
  C3       1.0000 0.11917  0.29361  0.29361  Biso   1.000  C
  C4       1.0000 0.29361  0.11917  0.29361  Biso   1.000  C
  C5       1.0000 0.70639  0.70639  0.88083  Biso   1.000  C
  C6       1.0000 0.70639  0.70639  0.70639  Biso   1.000  C
  C7       1.0000 0.70639  0.88083  0.70639  Biso   1.000  C
  C8       1.0000 0.88083  0.70639  0.70639  Biso   1.000  C
  C9       1.0000 0.45530  0.45530  0.93770  Biso   1.000  C
  C10      1.0000 0.45530  0.45530  0.15170  Biso   1.000  C
  C11      1.0000 0.93770  0.15170  0.45530  Biso   1.000  C
  C12      1.0000 0.15170  0.93770  0.45530  Biso   1.000  C
  C13      1.0000 0.45530  0.93770  0.15170  Biso   1.000  C
  C14      1.0000 0.45530  0.15170  0.93770  Biso   1.000  C
  C15      1.0000 0.93770  0.45530  0.45530  Biso   1.000  C
  C16      1.0000 0.15170  0.45530  0.45530  Biso   1.000  C
  C17      1.0000 0.45530  0.15170  0.45530  Biso   1.000  C
  C18      1.0000 0.45530  0.93770  0.45530  Biso   1.000  C
  C19      1.0000 0.93770  0.45530  0.15170  Biso   1.000  C
  C20      1.0000 0.15170  0.45530  0.93770  Biso   1.000  C
  C21      1.0000 0.54470  0.54470  0.06230  Biso   1.000  C
  C22      1.0000 0.54470  0.54470  0.84830  Biso   1.000  C
  C23      1.0000 0.84830  0.06230  0.54470  Biso   1.000  C
  C24      1.0000 0.06230  0.84830  0.54470  Biso   1.000  C
  C25      1.0000 0.06230  0.54470  0.84830  Biso   1.000  C
  C26      1.0000 0.84830  0.54470  0.06230  Biso   1.000  C
  C27      1.0000 0.54470  0.06230  0.54470  Biso   1.000  C
  C28      1.0000 0.54470  0.84830  0.54470  Biso   1.000  C
  C29      1.0000 0.84830  0.54470  0.54470  Biso   1.000  C
  C30      1.0000 0.06230  0.54470  0.54470  Biso   1.000  C
  C31      1.0000 0.54470  0.06230  0.84830  Biso   1.000  C
  C32      1.0000 0.54470  0.84830  0.06230  Biso   1.000  C
  C33      1.0000 0.47300  0.47300  0.96450  Biso   1.000  C
  C34      1.0000 0.47300  0.47300  0.08950  Biso   1.000  C
  C35      1.0000 0.96450  0.08950  0.47300  Biso   1.000  C
  C36      1.0000 0.08950  0.96450  0.47300  Biso   1.000  C
  C37      1.0000 0.47300  0.96450  0.08950  Biso   1.000  C
  C38      1.0000 0.47300  0.08950  0.96450  Biso   1.000  C
  C39      1.0000 0.96450  0.47300  0.47300  Biso   1.000  C
  C40      1.0000 0.08950  0.47300  0.47300  Biso   1.000  C
  C41      1.0000 0.47300  0.08950  0.47300  Biso   1.000  C
  C42      1.0000 0.47300  0.96450  0.47300  Biso   1.000  C
  C43      1.0000 0.96450  0.47300  0.08950  Biso   1.000  C
  C44      1.0000 0.08950  0.47300  0.96450  Biso   1.000  C
  C45      1.0000 0.52700  0.52700  0.03550  Biso   1.000  C
  C46      1.0000 0.52700  0.52700  0.91050  Biso   1.000  C
  C47      1.0000 0.91050  0.03550  0.52700  Biso   1.000  C
  C48      1.0000 0.03550  0.91050  0.52700  Biso   1.000  C
  C49      1.0000 0.03550  0.52700  0.91050  Biso   1.000  C
  C50      1.0000 0.91050  0.52700  0.03550  Biso   1.000  C
  C51      1.0000 0.52700  0.03550  0.52700  Biso   1.000  C
  C52      1.0000 0.52700  0.91050  0.52700  Biso   1.000  C
  C53      1.0000 0.91050  0.52700  0.52700  Biso   1.000  C
  C54      1.0000 0.03550  0.52700  0.52700  Biso   1.000  C
  C55      1.0000 0.52700  0.03550  0.91050  Biso   1.000  C
  C56      1.0000 0.52700  0.91050  0.03550  Biso   1.000  C
  C57      1.0000 0.38860  0.38860  0.11140  Biso   1.000  C
  C58      1.0000 0.44600  0.44600  0.05400  Biso   1.000  C
  C59      1.0000 0.11140  0.11140  0.38860  Biso   1.000  C
  C60      1.0000 0.05400  0.05400  0.44600  Biso   1.000  C
  C61      1.0000 0.38860  0.11140  0.11140  Biso   1.000  C
  C62      1.0000 0.44600  0.05400  0.05400  Biso   1.000  C
  C63      1.0000 0.11140  0.38860  0.38860  Biso   1.000  C
  C64      1.0000 0.05400  0.44600  0.44600  Biso   1.000  C
  C65      1.0000 0.38860  0.11140  0.38860  Biso   1.000  C
  C66      1.0000 0.44600  0.05400  0.44600  Biso   1.000  C
  C67      1.0000 0.11140  0.38860  0.11140  Biso   1.000  C
  C68      1.0000 0.05400  0.44600  0.05400  Biso   1.000  C
  C69      1.0000 0.61140  0.61140  0.88860  Biso   1.000  C
  C70      1.0000 0.55400  0.55400  0.94600  Biso   1.000  C
  C71      1.0000 0.88860  0.88860  0.61140  Biso   1.000  C
  C72      1.0000 0.94600  0.94600  0.55400  Biso   1.000  C
  C73      1.0000 0.88860  0.61140  0.88860  Biso   1.000  C
  C74      1.0000 0.94600  0.55400  0.94600  Biso   1.000  C
  C75      1.0000 0.61140  0.88860  0.61140  Biso   1.000  C
  C76      1.0000 0.55400  0.94600  0.55400  Biso   1.000  C
  C77      1.0000 0.88860  0.61140  0.61140  Biso   1.000  C
  C78      1.0000 0.94600  0.55400  0.55400  Biso   1.000  C
  C79      1.0000 0.61140  0.88860  0.88860  Biso   1.000  C
  C80      1.0000 0.55400  0.94600  0.94600  Biso   1.000  C
  C81      1.0000 0.25000  0.25000  0.25000  Biso   1.000  C
  C82      1.0000 0.75000  0.75000  0.75000  Biso   1.000  C
  C83      1.0000 0.36611  0.36611  0.07317  Biso   1.000  C
  C84      1.0000 0.36611  0.36611  0.19461  Biso   1.000  C
  C85      1.0000 0.07317  0.19461  0.36611  Biso   1.000  C
  C86      1.0000 0.19461  0.07317  0.36611  Biso   1.000  C
  C87      1.0000 0.36611  0.07317  0.19461  Biso   1.000  C
  C88      1.0000 0.36611  0.19461  0.07317  Biso   1.000  C
  C89      1.0000 0.07317  0.36611  0.36611  Biso   1.000  C
  C90      1.0000 0.19461  0.36611  0.36611  Biso   1.000  C
  C91      1.0000 0.36611  0.19461  0.36611  Biso   1.000  C
  C92      1.0000 0.36611  0.07317  0.36611  Biso   1.000  C
  C93      1.0000 0.07317  0.36611  0.19461  Biso   1.000  C
  C94      1.0000 0.19461  0.36611  0.07317  Biso   1.000  C
  C95      1.0000 0.63389  0.63389  0.92683  Biso   1.000  C
  C96      1.0000 0.63389  0.63389  0.80539  Biso   1.000  C
  C97      1.0000 0.80539  0.92683  0.63389  Biso   1.000  C
  C98      1.0000 0.92683  0.80539  0.63389  Biso   1.000  C
  C99      1.0000 0.92683  0.63389  0.80539  Biso   1.000  C
  C100     1.0000 0.80539  0.63389  0.92683  Biso   1.000  C
  C101     1.0000 0.63389  0.92683  0.63389  Biso   1.000  C
  C102     1.0000 0.63389  0.80539  0.63389  Biso   1.000  C
  C103     1.0000 0.80539  0.63389  0.63389  Biso   1.000  C
  C104     1.0000 0.92683  0.63389  0.63389  Biso   1.000  C
  C105     1.0000 0.63389  0.92683  0.80539  Biso   1.000  C
  C106     1.0000 0.63389  0.80539  0.92683  Biso   1.000  C
  O1       1.0000 0.52739  0.16544  0.64999  Biso   1.000  O
  O2       1.0000 0.52739  0.34066  0.64999  Biso   1.000  O
  O3       1.0000 0.35217  0.34066  0.64999  Biso   1.000  O
  O4       1.0000 0.52739  0.34066  0.47477  Biso   1.000  O
  O5       1.0000 0.95544  0.74783  0.05716  Biso   1.000  O
  O6       1.0000 0.95544  0.92305  0.05716  Biso   1.000  O
  O7       1.0000 0.13066  0.74783  0.05716  Biso   1.000  O
  O8       1.0000 0.95544  0.74783  0.23238  Biso   1.000  O
  O9       1.0000 0.38860  0.97796  0.81312  Biso   1.000  O
  O10      1.0000 0.69052  0.50379  0.51120  Biso   1.000  O
  O11      1.0000 0.16469  0.20187  0.81312  Biso   1.000  O
  O12      1.0000 0.69052  0.50379  0.28729  Biso   1.000  O
  O13      1.0000 0.16469  0.50379  0.51120  Biso   1.000  O
  O14      1.0000 0.69052  0.20187  0.81312  Biso   1.000  O
  O15      1.0000 0.38860  0.50379  0.28729  Biso   1.000  O
  O16      1.0000 0.69052  0.97796  0.81312  Biso   1.000  O
  O17      1.0000 0.69052  0.20187  0.28729  Biso   1.000  O
  O18      1.0000 0.38860  0.50379  0.81312  Biso   1.000  O
  O19      1.0000 0.69052  0.97796  0.51120  Biso   1.000  O
  O20      1.0000 0.16469  0.50379  0.81312  Biso   1.000  O
  O21      1.0000 0.09422  0.58470  0.89403  Biso   1.000  O
  O22      1.0000 0.79231  0.11053  0.19595  Biso   1.000  O
  O23      1.0000 0.31814  0.58470  0.89403  Biso   1.000  O
  O24      1.0000 0.79231  0.88662  0.41986  Biso   1.000  O
  O25      1.0000 0.31814  0.58470  0.19595  Biso   1.000  O
  O26      1.0000 0.79231  0.11053  0.89403  Biso   1.000  O
  O27      1.0000 0.09422  0.58470  0.41986  Biso   1.000  O
  O28      1.0000 0.79231  0.88662  0.89403  Biso   1.000  O
  O29      1.0000 0.79231  0.58470  0.41986  Biso   1.000  O
  O30      1.0000 0.09422  0.11053  0.89403  Biso   1.000  O
  O31      1.0000 0.79231  0.58470  0.19595  Biso   1.000  O
  O32      1.0000 0.31814  0.88662  0.89403  Biso   1.000  O
  O33      1.0000 0.32465  0.00479  0.83168  Biso   1.000  O
  O34      1.0000 0.70909  0.52236  0.44725  Biso   1.000  O
  O35      1.0000 0.19152  0.13792  0.83168  Biso   1.000  O
  O36      1.0000 0.70909  0.52236  0.31412  Biso   1.000  O
  O37      1.0000 0.19152  0.52236  0.44725  Biso   1.000  O
  O38      1.0000 0.70909  0.13792  0.83168  Biso   1.000  O
  O39      1.0000 0.32465  0.52236  0.31412  Biso   1.000  O
  O40      1.0000 0.70909  0.00479  0.83168  Biso   1.000  O
  O41      1.0000 0.70909  0.13792  0.31412  Biso   1.000  O
  O42      1.0000 0.32465  0.52236  0.83168  Biso   1.000  O
  O43      1.0000 0.70909  0.00479  0.44725  Biso   1.000  O
  O44      1.0000 0.19152  0.52236  0.83168  Biso   1.000  O
  O45      1.0000 0.15818  0.56614  0.87547  Biso   1.000  O
  O46      1.0000 0.77374  0.08370  0.25990  Biso   1.000  O
  O47      1.0000 0.29131  0.56614  0.87547  Biso   1.000  O
  O48      1.0000 0.77374  0.95057  0.39303  Biso   1.000  O
  O49      1.0000 0.29131  0.56614  0.25990  Biso   1.000  O
  O50      1.0000 0.77374  0.08370  0.87547  Biso   1.000  O
  O51      1.0000 0.15818  0.56614  0.39303  Biso   1.000  O
  O52      1.0000 0.77374  0.95057  0.87547  Biso   1.000  O
  O53      1.0000 0.77374  0.56614  0.39303  Biso   1.000  O
  O54      1.0000 0.15818  0.08370  0.87547  Biso   1.000  O
  O55      1.0000 0.77374  0.56614  0.25990  Biso   1.000  O
  O56      1.0000 0.29131  0.95057  0.87547  Biso   1.000  O
  O57      1.0000 0.34358  0.15685  0.74619  Biso   1.000  O
  O58      1.0000 0.28535  0.09862  0.80442  Biso   1.000  O
  O59      1.0000 0.62359  0.43686  0.46618  Biso   1.000  O
  O60      1.0000 0.68182  0.49509  0.40795  Biso   1.000  O
  O61      1.0000 0.34358  0.43686  0.46618  Biso   1.000  O
  O62      1.0000 0.28535  0.49509  0.40795  Biso   1.000  O
  O63      1.0000 0.62359  0.15685  0.74619  Biso   1.000  O
  O64      1.0000 0.68182  0.09862  0.80442  Biso   1.000  O
  O65      1.0000 0.62359  0.15685  0.46618  Biso   1.000  O
  O66      1.0000 0.68182  0.09862  0.40795  Biso   1.000  O
  O67      1.0000 0.34358  0.43686  0.74619  Biso   1.000  O
  O68      1.0000 0.28535  0.49509  0.80442  Biso   1.000  O
  O69      1.0000 0.13925  0.65163  0.96096  Biso   1.000  O
  O70      1.0000 0.19748  0.59340  0.90273  Biso   1.000  O
  O71      1.0000 0.85924  0.93164  0.24097  Biso   1.000  O
  O72      1.0000 0.80101  0.98987  0.29920  Biso   1.000  O
  O73      1.0000 0.13925  0.65163  0.24097  Biso   1.000  O
  O74      1.0000 0.19748  0.59340  0.29920  Biso   1.000  O
  O75      1.0000 0.85924  0.93164  0.96096  Biso   1.000  O
  O76      1.0000 0.80101  0.98987  0.90273  Biso   1.000  O
  O77      1.0000 0.85924  0.65163  0.24097  Biso   1.000  O
  O78      1.0000 0.80101  0.59340  0.29920  Biso   1.000  O
  O79      1.0000 0.13925  0.93164  0.96096  Biso   1.000  O
  O80      1.0000 0.19748  0.98987  0.90273  Biso   1.000  O
  O81      1.0000 0.48359  0.29686  0.60618  Biso   1.000  O
  O82      1.0000 0.99924  0.79164  0.10097  Biso   1.000  O
  O83      1.0000 0.42805  0.11732  0.72372  Biso   1.000  O
  O84      1.0000 0.60112  0.41439  0.55065  Biso   1.000  O
  O85      1.0000 0.30405  0.24132  0.72372  Biso   1.000  O
  O86      1.0000 0.60112  0.41439  0.42665  Biso   1.000  O
  O87      1.0000 0.30405  0.41439  0.55065  Biso   1.000  O
  O88      1.0000 0.60112  0.24132  0.72372  Biso   1.000  O
  O89      1.0000 0.42805  0.41439  0.42665  Biso   1.000  O
  O90      1.0000 0.60112  0.11732  0.72372  Biso   1.000  O
  O91      1.0000 0.60112  0.24132  0.42665  Biso   1.000  O
  O92      1.0000 0.42805  0.41439  0.72372  Biso   1.000  O
  O93      1.0000 0.60112  0.11732  0.55065  Biso   1.000  O
  O94      1.0000 0.30405  0.41439  0.72372  Biso   1.000  O
  O95      1.0000 0.05478  0.67410  0.98343  Biso   1.000  O
  O96      1.0000 0.88171  0.97117  0.15650  Biso   1.000  O
  O97      1.0000 0.17878  0.67410  0.98343  Biso   1.000  O
  O98      1.0000 0.88171  0.84717  0.28050  Biso   1.000  O
  O99      1.0000 0.17878  0.67410  0.15650  Biso   1.000  O
  O100     1.0000 0.88171  0.97117  0.98343  Biso   1.000  O
  O101     1.0000 0.05478  0.67410  0.28050  Biso   1.000  O
  O102     1.0000 0.88171  0.84717  0.98343  Biso   1.000  O
  O103     1.0000 0.88171  0.67410  0.28050  Biso   1.000  O
  O104     1.0000 0.05478  0.97117  0.98343  Biso   1.000  O
  O105     1.0000 0.88171  0.67410  0.15650  Biso   1.000  O
  O106     1.0000 0.17878  0.84717  0.98343  Biso   1.000  O
