data_image0
_cell_length_a       18.2455
_cell_length_b       18.2455
_cell_length_c       18.2455
_cell_angle_alpha    60
_cell_angle_beta     60
_cell_angle_gamma    60

_symmetry_space_group_name_H-M    "P 1"
_symmetry_int_tables_number       1

loop_
  _symmetry_equiv_pos_as_xyz
  'x, y, z'

loop_
  _atom_site_label
  _atom_site_occupancy
  _atom_site_fract_x
  _atom_site_fract_y
  _atom_site_fract_z
  _atom_site_thermal_displace_type
  _atom_site_B_iso_or_equiv
  _atom_site_type_symbol
  Zn1      1.0000 0.29354  0.29354  0.11938  Biso   1.000  Zn
  Zn2      1.0000 0.29354  0.29354  0.29354  Biso   1.000  Zn
  Zn3      1.0000 0.11938  0.29354  0.29354  Biso   1.000  Zn
  Zn4      1.0000 0.29354  0.11938  0.29354  Biso   1.000  Zn
  Zn5      1.0000 0.70646  0.70646  0.88062  Biso   1.000  Zn
  Zn6      1.0000 0.70646  0.70646  0.70646  Biso   1.000  Zn
  Zn7      1.0000 0.70646  0.88062  0.70646  Biso   1.000  Zn
  Zn8      1.0000 0.88062  0.70646  0.70646  Biso   1.000  Zn
  H1       1.0000 0.45580  0.45580  0.93620  Biso   1.000  H
  H2       1.0000 0.45580  0.45580  0.15220  Biso   1.000  H
  H3       1.0000 0.93620  0.15220  0.45580  Biso   1.000  H
  H4       1.0000 0.15220  0.93620  0.45580  Biso   1.000  H
  H5       1.0000 0.45580  0.93620  0.15220  Biso   1.000  H
  H6       1.0000 0.45580  0.15220  0.93620  Biso   1.000  H
  H7       1.0000 0.93620  0.45580  0.45580  Biso   1.000  H
  H8       1.0000 0.15220  0.45580  0.45580  Biso   1.000  H
  H9       1.0000 0.45580  0.15220  0.45580  Biso   1.000  H
  H10      1.0000 0.45580  0.93620  0.45580  Biso   1.000  H
  H11      1.0000 0.93620  0.45580  0.15220  Biso   1.000  H
  H12      1.0000 0.15220  0.45580  0.93620  Biso   1.000  H
  H13      1.0000 0.54420  0.54420  0.06380  Biso   1.000  H
  H14      1.0000 0.54420  0.54420  0.84780  Biso   1.000  H
  H15      1.0000 0.84780  0.06380  0.54420  Biso   1.000  H
  H16      1.0000 0.06380  0.84780  0.54420  Biso   1.000  H
  H17      1.0000 0.06380  0.54420  0.84780  Biso   1.000  H
  H18      1.0000 0.84780  0.54420  0.06380  Biso   1.000  H
  H19      1.0000 0.54420  0.06380  0.54420  Biso   1.000  H
  H20      1.0000 0.54420  0.84780  0.54420  Biso   1.000  H
  H21      1.0000 0.84780  0.54420  0.54420  Biso   1.000  H
  H22      1.0000 0.06380  0.54420  0.54420  Biso   1.000  H
  H23      1.0000 0.54420  0.06380  0.84780  Biso   1.000  H
  H24      1.0000 0.54420  0.84780  0.06380  Biso   1.000  H
  C1       1.0000 0.47345  0.47345  0.96303  Biso   1.000  C
  C2       1.0000 0.47345  0.47345  0.09007  Biso   1.000  C
  C3       1.0000 0.96303  0.09007  0.47345  Biso   1.000  C
  C4       1.0000 0.09007  0.96303  0.47345  Biso   1.000  C
  C5       1.0000 0.47345  0.96303  0.09007  Biso   1.000  C
  C6       1.0000 0.47345  0.09007  0.96303  Biso   1.000  C
  C7       1.0000 0.96303  0.47345  0.47345  Biso   1.000  C
  C8       1.0000 0.09007  0.47345  0.47345  Biso   1.000  C
  C9       1.0000 0.47345  0.09007  0.47345  Biso   1.000  C
  C10      1.0000 0.47345  0.96303  0.47345  Biso   1.000  C
  C11      1.0000 0.96303  0.47345  0.09007  Biso   1.000  C
  C12      1.0000 0.09007  0.47345  0.96303  Biso   1.000  C
  C13      1.0000 0.52655  0.52655  0.03697  Biso   1.000  C
  C14      1.0000 0.52655  0.52655  0.90993  Biso   1.000  C
  C15      1.0000 0.90993  0.03697  0.52655  Biso   1.000  C
  C16      1.0000 0.03697  0.90993  0.52655  Biso   1.000  C
  C17      1.0000 0.03697  0.52655  0.90993  Biso   1.000  C
  C18      1.0000 0.90993  0.52655  0.03697  Biso   1.000  C
  C19      1.0000 0.52655  0.03697  0.52655  Biso   1.000  C
  C20      1.0000 0.52655  0.90993  0.52655  Biso   1.000  C
  C21      1.0000 0.90993  0.52655  0.52655  Biso   1.000  C
  C22      1.0000 0.03697  0.52655  0.52655  Biso   1.000  C
  C23      1.0000 0.52655  0.03697  0.90993  Biso   1.000  C
  C24      1.0000 0.52655  0.90993  0.03697  Biso   1.000  C
  C25      1.0000 0.38857  0.38857  0.11143  Biso   1.000  C
  C26      1.0000 0.44620  0.44620  0.05380  Biso   1.000  C
  C27      1.0000 0.11143  0.11143  0.38857  Biso   1.000  C
  C28      1.0000 0.05380  0.05380  0.44620  Biso   1.000  C
  C29      1.0000 0.38857  0.11143  0.11143  Biso   1.000  C
  C30      1.0000 0.44620  0.05380  0.05380  Biso   1.000  C
  C31      1.0000 0.11143  0.38857  0.38857  Biso   1.000  C
  C32      1.0000 0.05380  0.44620  0.44620  Biso   1.000  C
  C33      1.0000 0.38857  0.11143  0.38857  Biso   1.000  C
  C34      1.0000 0.44620  0.05380  0.44620  Biso   1.000  C
  C35      1.0000 0.11143  0.38857  0.11143  Biso   1.000  C
  C36      1.0000 0.05380  0.44620  0.05380  Biso   1.000  C
  C37      1.0000 0.61143  0.61143  0.88857  Biso   1.000  C
  C38      1.0000 0.55380  0.55380  0.94620  Biso   1.000  C
  C39      1.0000 0.88857  0.88857  0.61143  Biso   1.000  C
  C40      1.0000 0.94620  0.94620  0.55380  Biso   1.000  C
  C41      1.0000 0.88857  0.61143  0.88857  Biso   1.000  C
  C42      1.0000 0.94620  0.55380  0.94620  Biso   1.000  C
  C43      1.0000 0.61143  0.88857  0.61143  Biso   1.000  C
  C44      1.0000 0.55380  0.94620  0.55380  Biso   1.000  C
  C45      1.0000 0.88857  0.61143  0.61143  Biso   1.000  C
  C46      1.0000 0.94620  0.55380  0.55380  Biso   1.000  C
  C47      1.0000 0.61143  0.88857  0.88857  Biso   1.000  C
  C48      1.0000 0.55380  0.94620  0.94620  Biso   1.000  C
  O1       1.0000 0.25000  0.25000  0.25000  Biso   1.000  O
  O2       1.0000 0.75000  0.75000  0.75000  Biso   1.000  O
  O3       1.0000 0.36603  0.36603  0.07311  Biso   1.000  O
  O4       1.0000 0.36603  0.36603  0.19483  Biso   1.000  O
  O5       1.0000 0.07311  0.19483  0.36603  Biso   1.000  O
  O6       1.0000 0.19483  0.07311  0.36603  Biso   1.000  O
  O7       1.0000 0.36603  0.07311  0.19483  Biso   1.000  O
  O8       1.0000 0.36603  0.19483  0.07311  Biso   1.000  O
  O9       1.0000 0.07311  0.36603  0.36603  Biso   1.000  O
  O10      1.0000 0.19483  0.36603  0.36603  Biso   1.000  O
  O11      1.0000 0.36603  0.19483  0.36603  Biso   1.000  O
  O12      1.0000 0.36603  0.07311  0.36603  Biso   1.000  O
  O13      1.0000 0.07311  0.36603  0.19483  Biso   1.000  O
  O14      1.0000 0.19483  0.36603  0.07311  Biso   1.000  O
  O15      1.0000 0.63397  0.63397  0.92689  Biso   1.000  O
  O16      1.0000 0.63397  0.63397  0.80517  Biso   1.000  O
  O17      1.0000 0.80517  0.92689  0.63397  Biso   1.000  O
  O18      1.0000 0.92689  0.80517  0.63397  Biso   1.000  O
  O19      1.0000 0.92689  0.63397  0.80517  Biso   1.000  O
  O20      1.0000 0.80517  0.63397  0.92689  Biso   1.000  O
  O21      1.0000 0.63397  0.92689  0.63397  Biso   1.000  O
  O22      1.0000 0.63397  0.80517  0.63397  Biso   1.000  O
  O23      1.0000 0.80517  0.63397  0.63397  Biso   1.000  O
  O24      1.0000 0.92689  0.63397  0.63397  Biso   1.000  O
  O25      1.0000 0.63397  0.92689  0.80517  Biso   1.000  O
  O26      1.0000 0.63397  0.80517  0.92689  Biso   1.000  O
  Zn9      1.0000 0.86938  0.69028  0.65419  Biso   1.000  Zn
  Zn10     1.0000 0.28156  0.27810  0.06633  Biso   1.000  Zn
  Zn11     1.0000 0.28156  0.10362  0.06633  Biso   1.000  Zn
  Zn12     1.0000 0.86937  0.51580  0.65419  Biso   1.000  Zn
  Zn13     1.0000 0.86912  0.69048  0.47956  Biso   1.000  Zn
  Zn14     1.0000 0.69456  0.69035  0.65440  Biso   1.000  Zn
  Zn15     1.0000 0.28182  0.10342  0.24096  Biso   1.000  Zn
  Zn16     1.0000 0.45638  0.10355  0.06612  Biso   1.000  Zn
  H25      1.0000 0.03043  0.33343  0.51269  Biso   1.000  H
  H26      1.0000 0.02575  0.54902  0.29861  Biso   1.000  H
  H27      1.0000 0.72935  0.33542  0.81544  Biso   1.000  H
  H28      1.0000 0.50874  0.55020  0.82074  Biso   1.000  H
  H29      1.0000 0.03214  0.54960  0.81364  Biso   1.000  H
  H30      1.0000 0.12050  0.94079  0.20784  Biso   1.000  H
  H31      1.0000 0.12518  0.93767  0.42191  Biso   1.000  H
  H32      1.0000 0.42158  0.94441  0.90509  Biso   1.000  H
  H33      1.0000 0.64219  0.94391  0.89978  Biso   1.000  H
  H34      1.0000 0.11879  0.45959  0.90689  Biso   1.000  H
  H35      1.0000 0.12050  0.46047  0.20784  Biso   1.000  H
  H36      1.0000 0.12519  0.24488  0.42191  Biso   1.000  H
  H37      1.0000 0.42158  0.45849  0.90509  Biso   1.000  H
  H38      1.0000 0.64219  0.24370  0.89978  Biso   1.000  H
  H39      1.0000 0.11879  0.24430  0.90689  Biso   1.000  H
  H40      1.0000 0.03043  0.85311  0.51269  Biso   1.000  H
  H41      1.0000 0.02575  0.85623  0.29861  Biso   1.000  H
  H42      1.0000 0.72935  0.84950  0.81544  Biso   1.000  H
  H43      1.0000 0.50875  0.85000  0.82074  Biso   1.000  H
  H44      1.0000 0.03215  0.33432  0.81364  Biso   1.000  H
  H45      1.0000 0.51263  0.85181  0.51339  Biso   1.000  H
  H46      1.0000 0.72586  0.85453  0.29471  Biso   1.000  H
  H47      1.0000 0.63830  0.94209  0.20714  Biso   1.000  H
  H48      1.0000 0.42507  0.93938  0.42582  Biso   1.000  H
  C49      1.0000 0.96452  0.50609  0.47396  Biso   1.000  C
  C50      1.0000 0.02315  0.44905  0.41351  Biso   1.000  C
  C51      1.0000 0.04934  0.35995  0.45034  Biso   1.000  C
  C52      1.0000 0.04676  0.48678  0.32423  Biso   1.000  C
  C53      1.0000 0.68695  0.50727  0.75078  Biso   1.000  C
  C54      1.0000 0.62982  0.45153  0.80773  Biso   1.000  C
  C55      1.0000 0.66722  0.36113  0.83295  Biso   1.000  C
  C56      1.0000 0.53636  0.48816  0.83635  Biso   1.000  C
  C57      1.0000 0.04845  0.48746  0.83315  Biso   1.000  C
  C58      1.0000 0.18641  0.00883  0.24657  Biso   1.000  C
  C59      1.0000 0.12778  0.94999  0.30702  Biso   1.000  C
  C60      1.0000 0.10160  0.92387  0.27019  Biso   1.000  C
  C61      1.0000 0.10417  0.92207  0.39629  Biso   1.000  C
  C62      1.0000 0.46398  0.00925  0.96974  Biso   1.000  C
  C63      1.0000 0.52111  0.95331  0.91280  Biso   1.000  C
  C64      1.0000 0.48372  0.92549  0.88757  Biso   1.000  C
  C65      1.0000 0.61457  0.92509  0.88417  Biso   1.000  C
  C66      1.0000 0.10247  0.43327  0.88737  Biso   1.000  C
  C67      1.0000 0.18642  0.28781  0.24657  Biso   1.000  C
  C68      1.0000 0.12778  0.34485  0.30702  Biso   1.000  C
  C69      1.0000 0.10159  0.43395  0.27019  Biso   1.000  C
  C70      1.0000 0.10417  0.30712  0.39629  Biso   1.000  C
  C71      1.0000 0.46398  0.28663  0.96974  Biso   1.000  C
  C72      1.0000 0.52111  0.34237  0.91280  Biso   1.000  C
  C73      1.0000 0.48372  0.43277  0.88757  Biso   1.000  C
  C74      1.0000 0.61457  0.30575  0.88417  Biso   1.000  C
  C75      1.0000 0.10248  0.30645  0.88737  Biso   1.000  C
  C76      1.0000 0.96452  0.78507  0.47396  Biso   1.000  C
  C77      1.0000 0.02315  0.84391  0.41351  Biso   1.000  C
  C78      1.0000 0.04934  0.87003  0.45034  Biso   1.000  C
  C79      1.0000 0.04676  0.87184  0.32423  Biso   1.000  C
  C80      1.0000 0.68696  0.78466  0.75078  Biso   1.000  C
  C81      1.0000 0.62982  0.84059  0.80773  Biso   1.000  C
  C82      1.0000 0.66721  0.86841  0.83295  Biso   1.000  C
  C83      1.0000 0.53636  0.86881  0.83635  Biso   1.000  C
  C84      1.0000 0.04846  0.36063  0.83315  Biso   1.000  C
  C85      1.0000 0.68874  0.78677  0.46735  Biso   1.000  C
  C86      1.0000 0.62950  0.84291  0.41431  Biso   1.000  C
  C87      1.0000 0.53925  0.86953  0.45134  Biso   1.000  C
  C88      1.0000 0.66352  0.87194  0.32223  Biso   1.000  C
  C89      1.0000 0.96373  0.51018  0.74558  Biso   1.000  C
  C90      1.0000 0.02217  0.44993  0.80763  Biso   1.000  C
  C91      1.0000 0.46219  0.00713  0.25317  Biso   1.000  C
  C92      1.0000 0.52143  0.95099  0.30622  Biso   1.000  C
  C93      1.0000 0.61168  0.92437  0.26919  Biso   1.000  C
  C94      1.0000 0.48741  0.92197  0.39829  Biso   1.000  C
  C95      1.0000 0.18720  0.28373  0.97495  Biso   1.000  C
  C96      1.0000 0.12876  0.34397  0.91290  Biso   1.000  C
  O27      1.0000 0.94240  0.59185  0.43042  Biso   1.000  O
  O28      1.0000 0.94481  0.46556  0.55672  Biso   1.000  O
  O29      1.0000 0.64603  0.59293  0.72546  Biso   1.000  O
  O30      1.0000 0.77131  0.46705  0.72826  Biso   1.000  O
  O31      1.0000 0.94272  0.59323  0.72596  Biso   1.000  O
  O32      1.0000 0.20853  0.02894  0.29011  Biso   1.000  O
  O33      1.0000 0.20612  0.03135  0.16380  Biso   1.000  O
  O34      1.0000 0.50490  0.02866  0.99506  Biso   1.000  O
  O35      1.0000 0.37962  0.03086  0.99226  Biso   1.000  O
  O36      1.0000 0.20822  0.32615  0.99456  Biso   1.000  O
  O37      1.0000 0.20853  0.20206  0.29011  Biso   1.000  O
  O38      1.0000 0.20612  0.32835  0.16380  Biso   1.000  O
  O39      1.0000 0.50490  0.20097  0.99506  Biso   1.000  O
  O40      1.0000 0.37963  0.32685  0.99226  Biso   1.000  O
  O41      1.0000 0.20822  0.20067  0.99456  Biso   1.000  O
  O42      1.0000 0.94240  0.76496  0.43042  Biso   1.000  O
  O43      1.0000 0.94481  0.76255  0.55672  Biso   1.000  O
  O44      1.0000 0.64603  0.76525  0.72546  Biso   1.000  O
  O45      1.0000 0.77131  0.76304  0.72826  Biso   1.000  O
  O46      1.0000 0.94271  0.46775  0.72596  Biso   1.000  O
  O47      1.0000 0.82564  0.64687  0.61027  Biso   1.000  O
  O48      1.0000 0.77109  0.76356  0.43142  Biso   1.000  O
  O49      1.0000 0.64732  0.76515  0.55202  Biso   1.000  O
  O50      1.0000 0.32530  0.14703  0.11026  Biso   1.000  O
  O51      1.0000 0.37984  0.03034  0.28910  Biso   1.000  O
  O52      1.0000 0.50361  0.02875  0.16851  Biso   1.000  O
