data_image0
_cell_length_a       18.2704
_cell_length_b       18.2704
_cell_length_c       18.2704
_cell_angle_alpha    60
_cell_angle_beta     60
_cell_angle_gamma    60

_symmetry_space_group_name_H-M    "P 1"
_symmetry_int_tables_number       1

loop_
  _symmetry_equiv_pos_as_xyz
  'x, y, z'

loop_
  _atom_site_label
  _atom_site_occupancy
  _atom_site_fract_x
  _atom_site_fract_y
  _atom_site_fract_z
  _atom_site_thermal_displace_type
  _atom_site_B_iso_or_equiv
  _atom_site_type_symbol
  Zn1      1.0000 0.29350  0.29349  0.11952  Biso   1.000  Zn
  Zn2      1.0000 0.29350  0.29349  0.29349  Biso   1.000  Zn
  Zn3      1.0000 0.11953  0.29349  0.29349  Biso   1.000  Zn
  Zn4      1.0000 0.29350  0.11952  0.29349  Biso   1.000  Zn
  Zn5      1.0000 0.70650  0.70651  0.88048  Biso   1.000  Zn
  Zn6      1.0000 0.70650  0.70651  0.70651  Biso   1.000  Zn
  Zn7      1.0000 0.70650  0.88048  0.70651  Biso   1.000  Zn
  Zn8      1.0000 0.88047  0.70651  0.70651  Biso   1.000  Zn
  H1       1.0000 0.45540  0.45540  0.93560  Biso   1.000  H
  H2       1.0000 0.45540  0.45540  0.15360  Biso   1.000  H
  H3       1.0000 0.93560  0.15360  0.45540  Biso   1.000  H
  H4       1.0000 0.15360  0.93560  0.45540  Biso   1.000  H
  H5       1.0000 0.45540  0.93560  0.15360  Biso   1.000  H
  H6       1.0000 0.45540  0.15360  0.93560  Biso   1.000  H
  H7       1.0000 0.93560  0.45540  0.45540  Biso   1.000  H
  H8       1.0000 0.15360  0.45540  0.45540  Biso   1.000  H
  H9       1.0000 0.45540  0.15360  0.45540  Biso   1.000  H
  H10      1.0000 0.45540  0.93560  0.45540  Biso   1.000  H
  H11      1.0000 0.93560  0.45540  0.15360  Biso   1.000  H
  H12      1.0000 0.15360  0.45540  0.93560  Biso   1.000  H
  H13      1.0000 0.54460  0.54460  0.06440  Biso   1.000  H
  H14      1.0000 0.54460  0.54460  0.84640  Biso   1.000  H
  H15      1.0000 0.84640  0.06440  0.54460  Biso   1.000  H
  H16      1.0000 0.06440  0.84640  0.54460  Biso   1.000  H
  H17      1.0000 0.06440  0.54460  0.84640  Biso   1.000  H
  H18      1.0000 0.84640  0.54460  0.06440  Biso   1.000  H
  H19      1.0000 0.54460  0.06440  0.54460  Biso   1.000  H
  H20      1.0000 0.54460  0.84640  0.54460  Biso   1.000  H
  H21      1.0000 0.84640  0.54460  0.54460  Biso   1.000  H
  H22      1.0000 0.06440  0.54460  0.54460  Biso   1.000  H
  H23      1.0000 0.54460  0.06440  0.84640  Biso   1.000  H
  H24      1.0000 0.54460  0.84640  0.06440  Biso   1.000  H
  C1       1.0000 0.47338  0.47338  0.96238  Biso   1.000  C
  C2       1.0000 0.47338  0.47338  0.09086  Biso   1.000  C
  C3       1.0000 0.96238  0.09086  0.47338  Biso   1.000  C
  C4       1.0000 0.09086  0.96238  0.47338  Biso   1.000  C
  C5       1.0000 0.47338  0.96238  0.09086  Biso   1.000  C
  C6       1.0000 0.47338  0.09086  0.96238  Biso   1.000  C
  C7       1.0000 0.96238  0.47338  0.47338  Biso   1.000  C
  C8       1.0000 0.09086  0.47338  0.47338  Biso   1.000  C
  C9       1.0000 0.47338  0.09086  0.47338  Biso   1.000  C
  C10      1.0000 0.47338  0.96238  0.47338  Biso   1.000  C
  C11      1.0000 0.96238  0.47338  0.09086  Biso   1.000  C
  C12      1.0000 0.09086  0.47338  0.96238  Biso   1.000  C
  C13      1.0000 0.52662  0.52662  0.03762  Biso   1.000  C
  C14      1.0000 0.52662  0.52662  0.90914  Biso   1.000  C
  C15      1.0000 0.90914  0.03762  0.52662  Biso   1.000  C
  C16      1.0000 0.03762  0.90914  0.52662  Biso   1.000  C
  C17      1.0000 0.03762  0.52662  0.90914  Biso   1.000  C
  C18      1.0000 0.90914  0.52662  0.03762  Biso   1.000  C
  C19      1.0000 0.52662  0.03762  0.52662  Biso   1.000  C
  C20      1.0000 0.52662  0.90914  0.52662  Biso   1.000  C
  C21      1.0000 0.90914  0.52662  0.52662  Biso   1.000  C
  C22      1.0000 0.03762  0.52662  0.52662  Biso   1.000  C
  C23      1.0000 0.52662  0.03762  0.90914  Biso   1.000  C
  C24      1.0000 0.52662  0.90914  0.03762  Biso   1.000  C
  C25      1.0000 0.38861  0.38861  0.11139  Biso   1.000  C
  C26      1.0000 0.44619  0.44619  0.05381  Biso   1.000  C
  C27      1.0000 0.11139  0.11139  0.38861  Biso   1.000  C
  C28      1.0000 0.05381  0.05381  0.44619  Biso   1.000  C
  C29      1.0000 0.38861  0.11139  0.11139  Biso   1.000  C
  C30      1.0000 0.44619  0.05381  0.05381  Biso   1.000  C
  C31      1.0000 0.11139  0.38861  0.38861  Biso   1.000  C
  C32      1.0000 0.05381  0.44619  0.44619  Biso   1.000  C
  C33      1.0000 0.38861  0.11139  0.38861  Biso   1.000  C
  C34      1.0000 0.44619  0.05381  0.44619  Biso   1.000  C
  C35      1.0000 0.11139  0.38861  0.11139  Biso   1.000  C
  C36      1.0000 0.05381  0.44619  0.05381  Biso   1.000  C
  C37      1.0000 0.61139  0.61139  0.88861  Biso   1.000  C
  C38      1.0000 0.55381  0.55381  0.94619  Biso   1.000  C
  C39      1.0000 0.88861  0.88861  0.61139  Biso   1.000  C
  C40      1.0000 0.94619  0.94619  0.55381  Biso   1.000  C
  C41      1.0000 0.88861  0.61139  0.88861  Biso   1.000  C
  C42      1.0000 0.94619  0.55381  0.94619  Biso   1.000  C
  C43      1.0000 0.61139  0.88861  0.61139  Biso   1.000  C
  C44      1.0000 0.55381  0.94619  0.55381  Biso   1.000  C
  C45      1.0000 0.88861  0.61139  0.61139  Biso   1.000  C
  C46      1.0000 0.94619  0.55381  0.55381  Biso   1.000  C
  C47      1.0000 0.61139  0.88861  0.88861  Biso   1.000  C
  C48      1.0000 0.55381  0.94619  0.94619  Biso   1.000  C
  O1       1.0000 0.25000  0.25000  0.25000  Biso   1.000  O
  O2       1.0000 0.75000  0.75000  0.75000  Biso   1.000  O
  O3       1.0000 0.36607  0.36607  0.07299  Biso   1.000  O
  O4       1.0000 0.36607  0.36607  0.19487  Biso   1.000  O
  O5       1.0000 0.07299  0.19487  0.36607  Biso   1.000  O
  O6       1.0000 0.19487  0.07299  0.36607  Biso   1.000  O
  O7       1.0000 0.36607  0.07299  0.19487  Biso   1.000  O
  O8       1.0000 0.36607  0.19487  0.07299  Biso   1.000  O
  O9       1.0000 0.07299  0.36607  0.36607  Biso   1.000  O
  O10      1.0000 0.19487  0.36607  0.36607  Biso   1.000  O
  O11      1.0000 0.36607  0.19487  0.36607  Biso   1.000  O
  O12      1.0000 0.36607  0.07299  0.36607  Biso   1.000  O
  O13      1.0000 0.07299  0.36607  0.19487  Biso   1.000  O
  O14      1.0000 0.19487  0.36607  0.07299  Biso   1.000  O
  O15      1.0000 0.63393  0.63393  0.92701  Biso   1.000  O
  O16      1.0000 0.63393  0.63393  0.80513  Biso   1.000  O
  O17      1.0000 0.80513  0.92701  0.63393  Biso   1.000  O
  O18      1.0000 0.92701  0.80513  0.63393  Biso   1.000  O
  O19      1.0000 0.92701  0.63393  0.80513  Biso   1.000  O
  O20      1.0000 0.80513  0.63393  0.92701  Biso   1.000  O
  O21      1.0000 0.63393  0.92701  0.63393  Biso   1.000  O
  O22      1.0000 0.63393  0.80513  0.63393  Biso   1.000  O
  O23      1.0000 0.80513  0.63393  0.63393  Biso   1.000  O
  O24      1.0000 0.92701  0.63393  0.63393  Biso   1.000  O
  O25      1.0000 0.63393  0.92701  0.80513  Biso   1.000  O
  O26      1.0000 0.63393  0.80513  0.92701  Biso   1.000  O
  Zn9      1.0000 0.57677  0.42321  0.42318  Biso   1.000  Zn
  Zn10     1.0000 0.13476  0.84660  0.01835  Biso   1.000  Zn
  Zn11     1.0000 0.13476  0.01856  0.01835  Biso   1.000  Zn
  Zn12     1.0000 0.57677  0.59517  0.42318  Biso   1.000  Zn
  Zn13     1.0000 0.57673  0.42313  0.59535  Biso   1.000  Zn
  Zn14     1.0000 0.74850  0.42338  0.42306  Biso   1.000  Zn
  Zn15     1.0000 0.13480  0.01864  0.84618  Biso   1.000  Zn
  Zn16     1.0000 0.96303  0.01838  0.01848  Biso   1.000  Zn
  H25      1.0000 0.39539  0.26802  0.79512  Biso   1.000  H
  H26      1.0000 0.39445  0.26955  0.55826  Biso   1.000  H
  H27      1.0000 0.39159  0.55832  0.27034  Biso   1.000  H
  H28      1.0000 0.31614  0.88205  0.64641  Biso   1.000  H
  H29      1.0000 0.31708  0.64569  0.88328  Biso   1.000  H
  H30      1.0000 0.31994  0.64371  0.17119  Biso   1.000  H
  H31      1.0000 0.31614  0.17375  0.64641  Biso   1.000  H
  H32      1.0000 0.31708  0.17222  0.88328  Biso   1.000  H
  H33      1.0000 0.31994  0.88345  0.17119  Biso   1.000  H
  H34      1.0000 0.39540  0.55972  0.79512  Biso   1.000  H
  H35      1.0000 0.39445  0.79608  0.55826  Biso   1.000  H
  H36      1.0000 0.39159  0.79806  0.27034  Biso   1.000  H
  C49      1.0000 0.49041  0.33590  0.59978  Biso   1.000  C
  C50      1.0000 0.42701  0.27200  0.65848  Biso   1.000  C
  C51      1.0000 0.37989  0.24682  0.76901  Biso   1.000  C
  C52      1.0000 0.37993  0.24825  0.62089  Biso   1.000  C
  C53      1.0000 0.74941  0.33650  0.33660  Biso   1.000  C
  C54      1.0000 0.37834  0.62084  0.24688  Biso   1.000  C
  C55      1.0000 0.22112  0.84951  0.84175  Biso   1.000  C
  C56      1.0000 0.28452  0.78091  0.78305  Biso   1.000  C
  C57      1.0000 0.33165  0.81923  0.67252  Biso   1.000  C
  C58      1.0000 0.33160  0.67249  0.82065  Biso   1.000  C
  C59      1.0000 0.96212  0.84596  0.10493  Biso   1.000  C
  C60      1.0000 0.33319  0.66953  0.19466  Biso   1.000  C
  C61      1.0000 0.22112  0.10587  0.84175  Biso   1.000  C
  C62      1.0000 0.28452  0.16977  0.78305  Biso   1.000  C
  C63      1.0000 0.33165  0.19495  0.67252  Biso   1.000  C
  C64      1.0000 0.33160  0.19352  0.82065  Biso   1.000  C
  C65      1.0000 0.96212  0.10527  0.10493  Biso   1.000  C
  C66      1.0000 0.33319  0.82093  0.19466  Biso   1.000  C
  C67      1.0000 0.49041  0.59226  0.59978  Biso   1.000  C
  C68      1.0000 0.42701  0.66086  0.65848  Biso   1.000  C
  C69      1.0000 0.37989  0.62254  0.76901  Biso   1.000  C
  C70      1.0000 0.37993  0.76928  0.62089  Biso   1.000  C
  C71      1.0000 0.74941  0.59581  0.33660  Biso   1.000  C
  C72      1.0000 0.37834  0.77224  0.24688  Biso   1.000  C
  C73      1.0000 0.74746  0.33560  0.59968  Biso   1.000  C
  C74      1.0000 0.48706  0.59689  0.33749  Biso   1.000  C
  C75      1.0000 0.42679  0.66108  0.26936  Biso   1.000  C
  C76      1.0000 0.96407  0.10617  0.84185  Biso   1.000  C
  C77      1.0000 0.22447  0.84488  0.10405  Biso   1.000  C
  C78      1.0000 0.28474  0.78069  0.17218  Biso   1.000  C
  O27      1.0000 0.50769  0.35199  0.64317  Biso   1.000  O
  O28      1.0000 0.50572  0.35121  0.51791  Biso   1.000  O
  O29      1.0000 0.79809  0.35181  0.35270  Biso   1.000  O
  O30      1.0000 0.66922  0.35161  0.35260  Biso   1.000  O
  O31      1.0000 0.50649  0.51621  0.35103  Biso   1.000  O
  O32      1.0000 0.20385  0.92626  0.79836  Biso   1.000  O
  O33      1.0000 0.20582  0.79827  0.92362  Biso   1.000  O
  O34      1.0000 0.91344  0.92605  0.08883  Biso   1.000  O
  O35      1.0000 0.04231  0.79689  0.08893  Biso   1.000  O
  O36      1.0000 0.20504  0.79718  0.09050  Biso   1.000  O
  O37      1.0000 0.20385  0.08978  0.79836  Biso   1.000  O
  O38      1.0000 0.20582  0.09056  0.92362  Biso   1.000  O
  O39      1.0000 0.91344  0.08996  0.08883  Biso   1.000  O
  O40      1.0000 0.04231  0.09016  0.08893  Biso   1.000  O
  O41      1.0000 0.20504  0.92556  0.09050  Biso   1.000  O
  O42      1.0000 0.50769  0.51551  0.64317  Biso   1.000  O
  O43      1.0000 0.50572  0.64350  0.51791  Biso   1.000  O
  O44      1.0000 0.79809  0.51572  0.35270  Biso   1.000  O
  O45      1.0000 0.66922  0.64488  0.35260  Biso   1.000  O
  O46      1.0000 0.50649  0.64459  0.35103  Biso   1.000  O
  O47      1.0000 0.61829  0.46752  0.46500  Biso   1.000  O
  O48      1.0000 0.66953  0.35209  0.64464  Biso   1.000  O
  O49      1.0000 0.79781  0.35219  0.51615  Biso   1.000  O
  O50      1.0000 0.09324  0.97425  0.97653  Biso   1.000  O
  O51      1.0000 0.04200  0.08968  0.79689  Biso   1.000  O
  O52      1.0000 0.91373  0.08958  0.92539  Biso   1.000  O
