data_image0
_cell_length_a       18.2861
_cell_length_b       18.2861
_cell_length_c       18.2861
_cell_angle_alpha    60
_cell_angle_beta     60
_cell_angle_gamma    60

_symmetry_space_group_name_H-M    "P 1"
_symmetry_int_tables_number       1

loop_
  _symmetry_equiv_pos_as_xyz
  'x, y, z'

loop_
  _atom_site_label
  _atom_site_occupancy
  _atom_site_fract_x
  _atom_site_fract_y
  _atom_site_fract_z
  _atom_site_thermal_displace_type
  _atom_site_B_iso_or_equiv
  _atom_site_type_symbol
  C1       1.0000 0.29346  0.29347  0.11960  Biso   1.000  C
  C2       1.0000 0.29346  0.29347  0.29347  Biso   1.000  C
  C3       1.0000 0.11959  0.29347  0.29347  Biso   1.000  C
  C4       1.0000 0.29346  0.11960  0.29347  Biso   1.000  C
  C5       1.0000 0.70654  0.70653  0.88040  Biso   1.000  C
  C6       1.0000 0.70654  0.70653  0.70653  Biso   1.000  C
  C7       1.0000 0.70654  0.88040  0.70653  Biso   1.000  C
  C8       1.0000 0.88041  0.70653  0.70653  Biso   1.000  C
  C9       1.0000 0.45500  0.45500  0.93520  Biso   1.000  C
  C10      1.0000 0.45500  0.45500  0.15480  Biso   1.000  C
  C11      1.0000 0.93520  0.15480  0.45500  Biso   1.000  C
  C12      1.0000 0.15480  0.93520  0.45500  Biso   1.000  C
  C13      1.0000 0.45500  0.93520  0.15480  Biso   1.000  C
  C14      1.0000 0.45500  0.15480  0.93520  Biso   1.000  C
  C15      1.0000 0.93520  0.45500  0.45500  Biso   1.000  C
  C16      1.0000 0.15480  0.45500  0.45500  Biso   1.000  C
  C17      1.0000 0.45500  0.15480  0.45500  Biso   1.000  C
  C18      1.0000 0.45500  0.93520  0.45500  Biso   1.000  C
  C19      1.0000 0.93520  0.45500  0.15480  Biso   1.000  C
  C20      1.0000 0.15480  0.45500  0.93520  Biso   1.000  C
  C21      1.0000 0.54500  0.54500  0.06480  Biso   1.000  C
  C22      1.0000 0.54500  0.54500  0.84520  Biso   1.000  C
  C23      1.0000 0.84520  0.06480  0.54500  Biso   1.000  C
  C24      1.0000 0.06480  0.84520  0.54500  Biso   1.000  C
  C25      1.0000 0.06480  0.54500  0.84520  Biso   1.000  C
  C26      1.0000 0.84520  0.54500  0.06480  Biso   1.000  C
  C27      1.0000 0.54500  0.06480  0.54500  Biso   1.000  C
  C28      1.0000 0.54500  0.84520  0.54500  Biso   1.000  C
  C29      1.0000 0.84520  0.54500  0.54500  Biso   1.000  C
  C30      1.0000 0.06480  0.54500  0.54500  Biso   1.000  C
  C31      1.0000 0.54500  0.06480  0.84520  Biso   1.000  C
  C32      1.0000 0.54500  0.84520  0.06480  Biso   1.000  C
  C33      1.0000 0.47322  0.47322  0.96212  Biso   1.000  C
  C34      1.0000 0.47322  0.47322  0.09144  Biso   1.000  C
  C35      1.0000 0.96212  0.09144  0.47322  Biso   1.000  C
  C36      1.0000 0.09144  0.96212  0.47322  Biso   1.000  C
  C37      1.0000 0.47322  0.96212  0.09144  Biso   1.000  C
  C38      1.0000 0.47322  0.09144  0.96212  Biso   1.000  C
  C39      1.0000 0.96212  0.47322  0.47322  Biso   1.000  C
  C40      1.0000 0.09144  0.47322  0.47322  Biso   1.000  C
  C41      1.0000 0.47322  0.09144  0.47322  Biso   1.000  C
  C42      1.0000 0.47322  0.96212  0.47322  Biso   1.000  C
  C43      1.0000 0.96212  0.47322  0.09144  Biso   1.000  C
  C44      1.0000 0.09144  0.47322  0.96212  Biso   1.000  C
  C45      1.0000 0.52678  0.52678  0.03788  Biso   1.000  C
  C46      1.0000 0.52678  0.52678  0.90856  Biso   1.000  C
  C47      1.0000 0.90856  0.03788  0.52678  Biso   1.000  C
  C48      1.0000 0.03788  0.90856  0.52678  Biso   1.000  C
  C49      1.0000 0.03788  0.52678  0.90856  Biso   1.000  C
  C50      1.0000 0.90856  0.52678  0.03788  Biso   1.000  C
  C51      1.0000 0.52678  0.03788  0.52678  Biso   1.000  C
  C52      1.0000 0.52678  0.90856  0.52678  Biso   1.000  C
  C53      1.0000 0.90856  0.52678  0.52678  Biso   1.000  C
  C54      1.0000 0.03788  0.52678  0.52678  Biso   1.000  C
  C55      1.0000 0.52678  0.03788  0.90856  Biso   1.000  C
  C56      1.0000 0.52678  0.90856  0.03788  Biso   1.000  C
  C57      1.0000 0.38840  0.38840  0.11160  Biso   1.000  C
  C58      1.0000 0.44639  0.44639  0.05361  Biso   1.000  C
  C59      1.0000 0.11160  0.11160  0.38840  Biso   1.000  C
  C60      1.0000 0.05361  0.05361  0.44639  Biso   1.000  C
  C61      1.0000 0.38840  0.11160  0.11160  Biso   1.000  C
  C62      1.0000 0.44639  0.05361  0.05361  Biso   1.000  C
  C63      1.0000 0.11160  0.38840  0.38840  Biso   1.000  C
  C64      1.0000 0.05361  0.44639  0.44639  Biso   1.000  C
  C65      1.0000 0.38840  0.11160  0.38840  Biso   1.000  C
  C66      1.0000 0.44639  0.05361  0.44639  Biso   1.000  C
  C67      1.0000 0.11160  0.38840  0.11160  Biso   1.000  C
  C68      1.0000 0.05361  0.44639  0.05361  Biso   1.000  C
  C69      1.0000 0.61160  0.61160  0.88840  Biso   1.000  C
  C70      1.0000 0.55361  0.55361  0.94639  Biso   1.000  C
  C71      1.0000 0.88840  0.88840  0.61160  Biso   1.000  C
  C72      1.0000 0.94639  0.94639  0.55361  Biso   1.000  C
  C73      1.0000 0.88840  0.61160  0.88840  Biso   1.000  C
  C74      1.0000 0.94639  0.55361  0.94639  Biso   1.000  C
  C75      1.0000 0.61160  0.88840  0.61160  Biso   1.000  C
  C76      1.0000 0.55361  0.94639  0.55361  Biso   1.000  C
  C77      1.0000 0.88840  0.61160  0.61160  Biso   1.000  C
  C78      1.0000 0.94639  0.55361  0.55361  Biso   1.000  C
  C79      1.0000 0.61160  0.88840  0.88840  Biso   1.000  C
  C80      1.0000 0.55361  0.94639  0.94639  Biso   1.000  C
  C81      1.0000 0.25000  0.25000  0.25000  Biso   1.000  C
  C82      1.0000 0.75000  0.75000  0.75000  Biso   1.000  C
  C83      1.0000 0.36612  0.36612  0.07298  Biso   1.000  C
  C84      1.0000 0.36612  0.36612  0.19478  Biso   1.000  C
  C85      1.0000 0.07298  0.19478  0.36612  Biso   1.000  C
  C86      1.0000 0.19478  0.07298  0.36612  Biso   1.000  C
  C87      1.0000 0.36612  0.07298  0.19478  Biso   1.000  C
  C88      1.0000 0.36612  0.19478  0.07298  Biso   1.000  C
  C89      1.0000 0.07298  0.36612  0.36612  Biso   1.000  C
  C90      1.0000 0.19478  0.36612  0.36612  Biso   1.000  C
  C91      1.0000 0.36612  0.19478  0.36612  Biso   1.000  C
  C92      1.0000 0.36612  0.07298  0.36612  Biso   1.000  C
  C93      1.0000 0.07298  0.36612  0.19478  Biso   1.000  C
  C94      1.0000 0.19478  0.36612  0.07298  Biso   1.000  C
  C95      1.0000 0.63388  0.63388  0.92702  Biso   1.000  C
  C96      1.0000 0.63388  0.63388  0.80522  Biso   1.000  C
  C97      1.0000 0.80522  0.92702  0.63388  Biso   1.000  C
  C98      1.0000 0.92702  0.80522  0.63388  Biso   1.000  C
  C99      1.0000 0.92702  0.63388  0.80522  Biso   1.000  C
  C100     1.0000 0.80522  0.63388  0.92702  Biso   1.000  C
  C101     1.0000 0.63388  0.92702  0.63388  Biso   1.000  C
  C102     1.0000 0.63388  0.80522  0.63388  Biso   1.000  C
  C103     1.0000 0.80522  0.63388  0.63388  Biso   1.000  C
  C104     1.0000 0.92702  0.63388  0.63388  Biso   1.000  C
  C105     1.0000 0.63388  0.92702  0.80522  Biso   1.000  C
  C106     1.0000 0.63388  0.80522  0.92702  Biso   1.000  C
  O1       1.0000 0.76402  0.26069  0.37958  Biso   1.000  O
  O2       1.0000 0.57628  0.26069  0.56732  Biso   1.000  O
  O3       1.0000 0.57628  0.44842  0.37958  Biso   1.000  O
  O4       1.0000 0.57628  0.26069  0.37958  Biso   1.000  O
  O5       1.0000 0.15271  0.85454  0.80318  Biso   1.000  O
  O6       1.0000 0.98245  0.85454  0.97344  Biso   1.000  O
  O7       1.0000 0.15271  0.85454  0.97344  Biso   1.000  O
  O8       1.0000 0.15271  0.68428  0.97344  Biso   1.000  O
  O9       1.0000 0.01100  0.01606  0.62186  Biso   1.000  O
  O10      1.0000 0.80112  0.01606  0.83173  Biso   1.000  O
  O11      1.0000 0.31422  0.71284  0.13495  Biso   1.000  O
  O12      1.0000 0.31422  0.50296  0.13495  Biso   1.000  O
  O13      1.0000 0.31422  0.50296  0.83173  Biso   1.000  O
  O14      1.0000 0.31422  0.71284  0.62186  Biso   1.000  O
  O15      1.0000 0.01100  0.01606  0.13495  Biso   1.000  O
  O16      1.0000 0.80112  0.01606  0.13495  Biso   1.000  O
  O17      1.0000 0.80112  0.71284  0.13495  Biso   1.000  O
  O18      1.0000 0.01100  0.50296  0.13495  Biso   1.000  O
  O19      1.0000 0.31422  0.01606  0.83173  Biso   1.000  O
  O20      1.0000 0.31422  0.01606  0.62186  Biso   1.000  O
  O21      1.0000 0.90223  0.08218  0.59837  Biso   1.000  O
  O22      1.0000 0.94979  0.03247  0.65025  Biso   1.000  O
  O23      1.0000 0.77764  0.08218  0.72296  Biso   1.000  O
  O24      1.0000 0.82952  0.03247  0.77052  Biso   1.000  O
  O25      1.0000 0.38035  0.60407  0.20108  Biso   1.000  O
  O26      1.0000 0.33063  0.65162  0.15136  Biso   1.000  O
  O27      1.0000 0.38035  0.47948  0.20108  Biso   1.000  O
  O28      1.0000 0.33063  0.53136  0.15136  Biso   1.000  O
  O29      1.0000 0.38035  0.47948  0.72296  Biso   1.000  O
  O30      1.0000 0.33063  0.53136  0.77052  Biso   1.000  O
  O31      1.0000 0.38035  0.60407  0.59837  Biso   1.000  O
  O32      1.0000 0.33063  0.65162  0.65025  Biso   1.000  O
  O33      1.0000 0.90223  0.08218  0.20108  Biso   1.000  O
  O34      1.0000 0.94979  0.03247  0.15136  Biso   1.000  O
  O35      1.0000 0.77764  0.08218  0.20108  Biso   1.000  O
  O36      1.0000 0.82952  0.03247  0.15136  Biso   1.000  O
  O37      1.0000 0.77764  0.60407  0.20108  Biso   1.000  O
  O38      1.0000 0.82952  0.65162  0.15136  Biso   1.000  O
  O39      1.0000 0.90223  0.47948  0.20108  Biso   1.000  O
  O40      1.0000 0.94979  0.53136  0.15136  Biso   1.000  O
  O41      1.0000 0.38035  0.08218  0.72296  Biso   1.000  O
  O42      1.0000 0.33063  0.03247  0.77052  Biso   1.000  O
  O43      1.0000 0.38035  0.08218  0.59837  Biso   1.000  O
  O44      1.0000 0.33063  0.03247  0.65025  Biso   1.000  O
  O45      1.0000 0.75298  0.16914  0.57371  Biso   1.000  O
  O46      1.0000 0.81586  0.10626  0.63660  Biso   1.000  O
  O47      1.0000 0.97101  0.95111  0.79174  Biso   1.000  O
  O48      1.0000 0.92139  0.00073  0.74212  Biso   1.000  O
  O49      1.0000 0.46730  0.45482  0.28804  Biso   1.000  O
  O50      1.0000 0.40442  0.51770  0.22515  Biso   1.000  O
  O51      1.0000 0.24927  0.67285  0.07001  Biso   1.000  O
  O52      1.0000 0.29889  0.62323  0.11963  Biso   1.000  O
  O53      1.0000 0.46730  0.45482  0.57371  Biso   1.000  O
  O54      1.0000 0.40442  0.51770  0.63660  Biso   1.000  O
  O55      1.0000 0.24927  0.67285  0.79174  Biso   1.000  O
  O56      1.0000 0.29889  0.62323  0.74212  Biso   1.000  O
  O57      1.0000 0.75298  0.16914  0.28804  Biso   1.000  O
  O58      1.0000 0.81586  0.10626  0.22515  Biso   1.000  O
  O59      1.0000 0.97101  0.95111  0.07001  Biso   1.000  O
  O60      1.0000 0.92139  0.00073  0.11963  Biso   1.000  O
  O61      1.0000 0.75298  0.45482  0.28804  Biso   1.000  O
  O62      1.0000 0.81586  0.51770  0.22515  Biso   1.000  O
  O63      1.0000 0.97101  0.67285  0.07001  Biso   1.000  O
  O64      1.0000 0.92139  0.62323  0.11963  Biso   1.000  O
  O65      1.0000 0.46730  0.16914  0.57371  Biso   1.000  O
  O66      1.0000 0.40442  0.10626  0.63660  Biso   1.000  O
  O67      1.0000 0.24927  0.95111  0.79174  Biso   1.000  O
  O68      1.0000 0.29889  0.00073  0.74212  Biso   1.000  O
  O69      1.0000 0.11014  0.81198  0.93088  Biso   1.000  O
  O70      1.0000 0.63629  0.30326  0.42216  Biso   1.000  O
  O71      1.0000 0.79110  0.19076  0.49236  Biso   1.000  O
  O72      1.0000 0.05482  0.92664  0.75686  Biso   1.000  O
  O73      1.0000 0.67162  0.19076  0.61184  Biso   1.000  O
  O74      1.0000 0.93613  0.92664  0.87556  Biso   1.000  O
  O75      1.0000 0.48892  0.49294  0.30965  Biso   1.000  O
  O76      1.0000 0.22481  0.75666  0.04554  Biso   1.000  O
  O77      1.0000 0.48892  0.37346  0.30965  Biso   1.000  O
  O78      1.0000 0.22481  0.63797  0.04554  Biso   1.000  O
  O79      1.0000 0.48892  0.37346  0.61184  Biso   1.000  O
  O80      1.0000 0.22481  0.63797  0.87556  Biso   1.000  O
  O81      1.0000 0.48892  0.49294  0.49236  Biso   1.000  O
  O82      1.0000 0.22481  0.75666  0.75686  Biso   1.000  O
  O83      1.0000 0.79110  0.19076  0.30965  Biso   1.000  O
  O84      1.0000 0.05482  0.92664  0.04554  Biso   1.000  O
  O85      1.0000 0.67162  0.19076  0.30965  Biso   1.000  O
  O86      1.0000 0.93613  0.92664  0.04554  Biso   1.000  O
  O87      1.0000 0.67162  0.49294  0.30965  Biso   1.000  O
  O88      1.0000 0.93613  0.75666  0.04554  Biso   1.000  O
  O89      1.0000 0.79110  0.37346  0.30965  Biso   1.000  O
  O90      1.0000 0.05482  0.63797  0.04554  Biso   1.000  O
  O91      1.0000 0.48892  0.19076  0.61184  Biso   1.000  O
  O92      1.0000 0.22481  0.92664  0.87556  Biso   1.000  O
  O93      1.0000 0.48892  0.19076  0.49236  Biso   1.000  O
  O94      1.0000 0.22481  0.92664  0.75686  Biso   1.000  O
