data_image0
_cell_length_a       18.3083
_cell_length_b       18.3083
_cell_length_c       18.3083
_cell_angle_alpha    60
_cell_angle_beta     60
_cell_angle_gamma    60

_symmetry_space_group_name_H-M    "P 1"
_symmetry_int_tables_number       1

loop_
  _symmetry_equiv_pos_as_xyz
  'x, y, z'

loop_
  _atom_site_label
  _atom_site_occupancy
  _atom_site_fract_x
  _atom_site_fract_y
  _atom_site_fract_z
  _atom_site_thermal_displace_type
  _atom_site_B_iso_or_equiv
  _atom_site_type_symbol
  Zn1      1.0000 0.29342  0.29341  0.11976  Biso   1.000  Zn
  Zn2      1.0000 0.29342  0.29341  0.29341  Biso   1.000  Zn
  Zn3      1.0000 0.11977  0.29341  0.29341  Biso   1.000  Zn
  Zn4      1.0000 0.29342  0.11976  0.29341  Biso   1.000  Zn
  Zn5      1.0000 0.70658  0.70659  0.88024  Biso   1.000  Zn
  Zn6      1.0000 0.70658  0.70659  0.70659  Biso   1.000  Zn
  Zn7      1.0000 0.70658  0.88024  0.70659  Biso   1.000  Zn
  Zn8      1.0000 0.88023  0.70659  0.70659  Biso   1.000  Zn
  H1       1.0000 0.45480  0.45480  0.93480  Biso   1.000  H
  H2       1.0000 0.45480  0.45480  0.15560  Biso   1.000  H
  H3       1.0000 0.93480  0.15560  0.45480  Biso   1.000  H
  H4       1.0000 0.15560  0.93480  0.45480  Biso   1.000  H
  H5       1.0000 0.45480  0.93480  0.15560  Biso   1.000  H
  H6       1.0000 0.45480  0.15560  0.93480  Biso   1.000  H
  H7       1.0000 0.93480  0.45480  0.45480  Biso   1.000  H
  H8       1.0000 0.15560  0.45480  0.45480  Biso   1.000  H
  H9       1.0000 0.45480  0.15560  0.45480  Biso   1.000  H
  H10      1.0000 0.45480  0.93480  0.45480  Biso   1.000  H
  H11      1.0000 0.93480  0.45480  0.15560  Biso   1.000  H
  H12      1.0000 0.15560  0.45480  0.93480  Biso   1.000  H
  H13      1.0000 0.54520  0.54520  0.06520  Biso   1.000  H
  H14      1.0000 0.54520  0.54520  0.84440  Biso   1.000  H
  H15      1.0000 0.84440  0.06520  0.54520  Biso   1.000  H
  H16      1.0000 0.06520  0.84440  0.54520  Biso   1.000  H
  H17      1.0000 0.06520  0.54520  0.84440  Biso   1.000  H
  H18      1.0000 0.84440  0.54520  0.06520  Biso   1.000  H
  H19      1.0000 0.54520  0.06520  0.54520  Biso   1.000  H
  H20      1.0000 0.54520  0.84440  0.54520  Biso   1.000  H
  H21      1.0000 0.84440  0.54520  0.54520  Biso   1.000  H
  H22      1.0000 0.06520  0.54520  0.54520  Biso   1.000  H
  H23      1.0000 0.54520  0.06520  0.84440  Biso   1.000  H
  H24      1.0000 0.54520  0.84440  0.06520  Biso   1.000  H
  C1       1.0000 0.47317  0.47317  0.96131  Biso   1.000  C
  C2       1.0000 0.47317  0.47317  0.09235  Biso   1.000  C
  C3       1.0000 0.96131  0.09235  0.47317  Biso   1.000  C
  C4       1.0000 0.09235  0.96131  0.47317  Biso   1.000  C
  C5       1.0000 0.47317  0.96131  0.09235  Biso   1.000  C
  C6       1.0000 0.47317  0.09235  0.96131  Biso   1.000  C
  C7       1.0000 0.96131  0.47317  0.47317  Biso   1.000  C
  C8       1.0000 0.09235  0.47317  0.47317  Biso   1.000  C
  C9       1.0000 0.47317  0.09235  0.47317  Biso   1.000  C
  C10      1.0000 0.47317  0.96131  0.47317  Biso   1.000  C
  C11      1.0000 0.96131  0.47317  0.09235  Biso   1.000  C
  C12      1.0000 0.09235  0.47317  0.96131  Biso   1.000  C
  C13      1.0000 0.52683  0.52683  0.03869  Biso   1.000  C
  C14      1.0000 0.52683  0.52683  0.90765  Biso   1.000  C
  C15      1.0000 0.90765  0.03869  0.52683  Biso   1.000  C
  C16      1.0000 0.03869  0.90765  0.52683  Biso   1.000  C
  C17      1.0000 0.03869  0.52683  0.90765  Biso   1.000  C
  C18      1.0000 0.90765  0.52683  0.03869  Biso   1.000  C
  C19      1.0000 0.52683  0.03869  0.52683  Biso   1.000  C
  C20      1.0000 0.52683  0.90765  0.52683  Biso   1.000  C
  C21      1.0000 0.90765  0.52683  0.52683  Biso   1.000  C
  C22      1.0000 0.03869  0.52683  0.52683  Biso   1.000  C
  C23      1.0000 0.52683  0.03869  0.90765  Biso   1.000  C
  C24      1.0000 0.52683  0.90765  0.03869  Biso   1.000  C
  C25      1.0000 0.38843  0.38843  0.11157  Biso   1.000  C
  C26      1.0000 0.44641  0.44641  0.05359  Biso   1.000  C
  C27      1.0000 0.11157  0.11157  0.38843  Biso   1.000  C
  C28      1.0000 0.05359  0.05359  0.44641  Biso   1.000  C
  C29      1.0000 0.38843  0.11157  0.11157  Biso   1.000  C
  C30      1.0000 0.44641  0.05359  0.05359  Biso   1.000  C
  C31      1.0000 0.11157  0.38843  0.38843  Biso   1.000  C
  C32      1.0000 0.05359  0.44641  0.44641  Biso   1.000  C
  C33      1.0000 0.38843  0.11157  0.38843  Biso   1.000  C
  C34      1.0000 0.44641  0.05359  0.44641  Biso   1.000  C
  C35      1.0000 0.11157  0.38843  0.11157  Biso   1.000  C
  C36      1.0000 0.05359  0.44641  0.05359  Biso   1.000  C
  C37      1.0000 0.61157  0.61157  0.88843  Biso   1.000  C
  C38      1.0000 0.55359  0.55359  0.94641  Biso   1.000  C
  C39      1.0000 0.88843  0.88843  0.61157  Biso   1.000  C
  C40      1.0000 0.94641  0.94641  0.55359  Biso   1.000  C
  C41      1.0000 0.88843  0.61157  0.88843  Biso   1.000  C
  C42      1.0000 0.94641  0.55359  0.94641  Biso   1.000  C
  C43      1.0000 0.61157  0.88843  0.61157  Biso   1.000  C
  C44      1.0000 0.55359  0.94641  0.55359  Biso   1.000  C
  C45      1.0000 0.88843  0.61157  0.61157  Biso   1.000  C
  C46      1.0000 0.94641  0.55359  0.55359  Biso   1.000  C
  C47      1.0000 0.61157  0.88843  0.88843  Biso   1.000  C
  C48      1.0000 0.55359  0.94641  0.94641  Biso   1.000  C
  O1       1.0000 0.25000  0.25000  0.25000  Biso   1.000  O
  O2       1.0000 0.75000  0.75000  0.75000  Biso   1.000  O
  O3       1.0000 0.36629  0.36629  0.07237  Biso   1.000  O
  O4       1.0000 0.36629  0.36629  0.19505  Biso   1.000  O
  O5       1.0000 0.07237  0.19505  0.36629  Biso   1.000  O
  O6       1.0000 0.19505  0.07237  0.36629  Biso   1.000  O
  O7       1.0000 0.36629  0.07237  0.19505  Biso   1.000  O
  O8       1.0000 0.36629  0.19505  0.07237  Biso   1.000  O
  O9       1.0000 0.07237  0.36629  0.36629  Biso   1.000  O
  O10      1.0000 0.19505  0.36629  0.36629  Biso   1.000  O
  O11      1.0000 0.36629  0.19505  0.36629  Biso   1.000  O
  O12      1.0000 0.36629  0.07237  0.36629  Biso   1.000  O
  O13      1.0000 0.07237  0.36629  0.19505  Biso   1.000  O
  O14      1.0000 0.19505  0.36629  0.07237  Biso   1.000  O
  O15      1.0000 0.63371  0.63371  0.92763  Biso   1.000  O
  O16      1.0000 0.63371  0.63371  0.80495  Biso   1.000  O
  O17      1.0000 0.80495  0.92763  0.63371  Biso   1.000  O
  O18      1.0000 0.92763  0.80495  0.63371  Biso   1.000  O
  O19      1.0000 0.92763  0.63371  0.80495  Biso   1.000  O
  O20      1.0000 0.80495  0.63371  0.92763  Biso   1.000  O
  O21      1.0000 0.63371  0.92763  0.63371  Biso   1.000  O
  O22      1.0000 0.63371  0.80495  0.63371  Biso   1.000  O
  O23      1.0000 0.80495  0.63371  0.63371  Biso   1.000  O
  O24      1.0000 0.92763  0.63371  0.63371  Biso   1.000  O
  O25      1.0000 0.63371  0.92763  0.80495  Biso   1.000  O
  O26      1.0000 0.63371  0.80495  0.92763  Biso   1.000  O
  Zn9      1.0000 0.50055  0.51801  0.33371  Biso   1.000  Zn
  Zn10     1.0000 0.50055  0.51801  0.50700  Biso   1.000  Zn
  Zn11     1.0000 0.32726  0.51801  0.50700  Biso   1.000  Zn
  Zn12     1.0000 0.50055  0.34472  0.50700  Biso   1.000  Zn
  Zn13     1.0000 0.91159  0.92907  0.09135  Biso   1.000  Zn
  Zn14     1.0000 0.91159  0.92907  0.91806  Biso   1.000  Zn
  Zn15     1.0000 0.91159  0.10236  0.91806  Biso   1.000  Zn
  Zn16     1.0000 0.08488  0.92907  0.91806  Biso   1.000  Zn
  H25      1.0000 0.66197  0.67945  0.14643  Biso   1.000  H
  H26      1.0000 0.66197  0.67945  0.36683  Biso   1.000  H
  H27      1.0000 0.13996  0.37784  0.66843  Biso   1.000  H
  H28      1.0000 0.36036  0.15744  0.66843  Biso   1.000  H
  H29      1.0000 0.66197  0.15744  0.36683  Biso   1.000  H
  H30      1.0000 0.66197  0.37784  0.14643  Biso   1.000  H
  H31      1.0000 0.13996  0.67945  0.66843  Biso   1.000  H
  H32      1.0000 0.36036  0.67945  0.66843  Biso   1.000  H
  H33      1.0000 0.66197  0.37784  0.66843  Biso   1.000  H
  H34      1.0000 0.66197  0.15744  0.66843  Biso   1.000  H
  H35      1.0000 0.13996  0.67945  0.36683  Biso   1.000  H
  H36      1.0000 0.36036  0.67945  0.14643  Biso   1.000  H
  H37      1.0000 0.75016  0.76764  0.27863  Biso   1.000  H
  H38      1.0000 0.75016  0.76764  0.05824  Biso   1.000  H
  H39      1.0000 0.05177  0.28965  0.75663  Biso   1.000  H
  H40      1.0000 0.27217  0.06925  0.75663  Biso   1.000  H
  H41      1.0000 0.27217  0.76764  0.05824  Biso   1.000  H
  H42      1.0000 0.05177  0.76764  0.27863  Biso   1.000  H
  H43      1.0000 0.75016  0.28965  0.75663  Biso   1.000  H
  H44      1.0000 0.75016  0.06925  0.75663  Biso   1.000  H
  H45      1.0000 0.05177  0.76764  0.75663  Biso   1.000  H
  H46      1.0000 0.27217  0.76764  0.75663  Biso   1.000  H
  H47      1.0000 0.75016  0.28965  0.05824  Biso   1.000  H
  H48      1.0000 0.75016  0.06925  0.27863  Biso   1.000  H
  C49      1.0000 0.67961  0.69708  0.17287  Biso   1.000  C
  C50      1.0000 0.67961  0.69708  0.30511  Biso   1.000  C
  C51      1.0000 0.16640  0.31612  0.68607  Biso   1.000  C
  C52      1.0000 0.29865  0.18388  0.68607  Biso   1.000  C
  C53      1.0000 0.67961  0.18388  0.30511  Biso   1.000  C
  C54      1.0000 0.67961  0.31612  0.17287  Biso   1.000  C
  C55      1.0000 0.16640  0.69708  0.68607  Biso   1.000  C
  C56      1.0000 0.29865  0.69708  0.68607  Biso   1.000  C
  C57      1.0000 0.67961  0.31612  0.68607  Biso   1.000  C
  C58      1.0000 0.67961  0.18388  0.68607  Biso   1.000  C
  C59      1.0000 0.16640  0.69708  0.30511  Biso   1.000  C
  C60      1.0000 0.29865  0.69708  0.17287  Biso   1.000  C
  C61      1.0000 0.73252  0.75000  0.25220  Biso   1.000  C
  C62      1.0000 0.73252  0.75000  0.11995  Biso   1.000  C
  C63      1.0000 0.11349  0.26321  0.73899  Biso   1.000  C
  C64      1.0000 0.24573  0.13096  0.73899  Biso   1.000  C
  C65      1.0000 0.24573  0.75000  0.11995  Biso   1.000  C
  C66      1.0000 0.11349  0.75000  0.25220  Biso   1.000  C
  C67      1.0000 0.73252  0.26321  0.73899  Biso   1.000  C
  C68      1.0000 0.73252  0.13096  0.73899  Biso   1.000  C
  C69      1.0000 0.11349  0.75000  0.73899  Biso   1.000  C
  C70      1.0000 0.24573  0.75000  0.73899  Biso   1.000  C
  C71      1.0000 0.73252  0.26321  0.11995  Biso   1.000  C
  C72      1.0000 0.73252  0.13096  0.25220  Biso   1.000  C
  C73      1.0000 0.59516  0.61263  0.32574  Biso   1.000  C
  C74      1.0000 0.65256  0.67004  0.26833  Biso   1.000  C
  C75      1.0000 0.31927  0.33675  0.60162  Biso   1.000  C
  C76      1.0000 0.26187  0.27934  0.65903  Biso   1.000  C
  C77      1.0000 0.59516  0.33675  0.32574  Biso   1.000  C
  C78      1.0000 0.65256  0.27934  0.26833  Biso   1.000  C
  C79      1.0000 0.31927  0.61263  0.60162  Biso   1.000  C
  C80      1.0000 0.26187  0.67004  0.65903  Biso   1.000  C
  C81      1.0000 0.59516  0.33675  0.60162  Biso   1.000  C
  C82      1.0000 0.65256  0.27934  0.65903  Biso   1.000  C
  C83      1.0000 0.31927  0.61263  0.32574  Biso   1.000  C
  C84      1.0000 0.26187  0.67004  0.26833  Biso   1.000  C
  C85      1.0000 0.81698  0.83445  0.09933  Biso   1.000  C
  C86      1.0000 0.75957  0.77705  0.15673  Biso   1.000  C
  C87      1.0000 0.09286  0.11034  0.82344  Biso   1.000  C
  C88      1.0000 0.15027  0.16774  0.76603  Biso   1.000  C
  C89      1.0000 0.09286  0.83445  0.09933  Biso   1.000  C
  C90      1.0000 0.15027  0.77705  0.15673  Biso   1.000  C
  C91      1.0000 0.81698  0.11034  0.82344  Biso   1.000  C
  C92      1.0000 0.75957  0.16774  0.76603  Biso   1.000  C
  C93      1.0000 0.09286  0.83445  0.82344  Biso   1.000  C
  C94      1.0000 0.15027  0.77705  0.76603  Biso   1.000  C
  C95      1.0000 0.81698  0.11034  0.09933  Biso   1.000  C
  C96      1.0000 0.75957  0.16774  0.15673  Biso   1.000  C
  O27      1.0000 0.45722  0.47469  0.46368  Biso   1.000  O
  O28      1.0000 0.95492  0.97239  0.96138  Biso   1.000  O
  O29      1.0000 0.57285  0.59033  0.28736  Biso   1.000  O
  O30      1.0000 0.57285  0.59033  0.40872  Biso   1.000  O
  O31      1.0000 0.28090  0.41973  0.57932  Biso   1.000  O
  O32      1.0000 0.40226  0.29837  0.57932  Biso   1.000  O
  O33      1.0000 0.57285  0.29837  0.40872  Biso   1.000  O
  O34      1.0000 0.57285  0.41973  0.28736  Biso   1.000  O
  O35      1.0000 0.28090  0.59033  0.57932  Biso   1.000  O
  O36      1.0000 0.40226  0.59033  0.57932  Biso   1.000  O
  O37      1.0000 0.57285  0.41973  0.57932  Biso   1.000  O
  O38      1.0000 0.57285  0.29837  0.57932  Biso   1.000  O
  O39      1.0000 0.28090  0.59033  0.40872  Biso   1.000  O
  O40      1.0000 0.40226  0.59033  0.28736  Biso   1.000  O
  O41      1.0000 0.83928  0.85676  0.13770  Biso   1.000  O
  O42      1.0000 0.83928  0.85676  0.01634  Biso   1.000  O
  O43      1.0000 0.00987  0.14871  0.84575  Biso   1.000  O
  O44      1.0000 0.13123  0.02735  0.84575  Biso   1.000  O
  O45      1.0000 0.13123  0.85676  0.01634  Biso   1.000  O
  O46      1.0000 0.00987  0.85676  0.13770  Biso   1.000  O
  O47      1.0000 0.83928  0.14871  0.84575  Biso   1.000  O
  O48      1.0000 0.83928  0.02735  0.84575  Biso   1.000  O
  O49      1.0000 0.00987  0.85676  0.84575  Biso   1.000  O
  O50      1.0000 0.13123  0.85676  0.84575  Biso   1.000  O
  O51      1.0000 0.83928  0.14871  0.01634  Biso   1.000  O
  O52      1.0000 0.83928  0.02735  0.13770  Biso   1.000  O
