data_image0
_cell_length_a       18.2205
_cell_length_b       18.2205
_cell_length_c       18.2205
_cell_angle_alpha    60
_cell_angle_beta     60
_cell_angle_gamma    60

_symmetry_space_group_name_H-M    "P 1"
_symmetry_int_tables_number       1

loop_
  _symmetry_equiv_pos_as_xyz
  'x, y, z'

loop_
  _atom_site_label
  _atom_site_occupancy
  _atom_site_fract_x
  _atom_site_fract_y
  _atom_site_fract_z
  _atom_site_thermal_displace_type
  _atom_site_B_iso_or_equiv
  _atom_site_type_symbol
  Zn1      1.0000 0.29361  0.29361  0.11917  Biso   1.000  Zn
  Zn2      1.0000 0.29361  0.29361  0.29361  Biso   1.000  Zn
  Zn3      1.0000 0.11917  0.29361  0.29361  Biso   1.000  Zn
  Zn4      1.0000 0.29361  0.11917  0.29361  Biso   1.000  Zn
  Zn5      1.0000 0.70639  0.70639  0.88083  Biso   1.000  Zn
  Zn6      1.0000 0.70639  0.70639  0.70639  Biso   1.000  Zn
  Zn7      1.0000 0.70639  0.88083  0.70639  Biso   1.000  Zn
  Zn8      1.0000 0.88083  0.70639  0.70639  Biso   1.000  Zn
  H1       1.0000 0.45580  0.45580  0.93700  Biso   1.000  H
  H2       1.0000 0.45580  0.45580  0.15140  Biso   1.000  H
  H3       1.0000 0.93700  0.15140  0.45580  Biso   1.000  H
  H4       1.0000 0.15140  0.93700  0.45580  Biso   1.000  H
  H5       1.0000 0.45580  0.93700  0.15140  Biso   1.000  H
  H6       1.0000 0.45580  0.15140  0.93700  Biso   1.000  H
  H7       1.0000 0.93700  0.45580  0.45580  Biso   1.000  H
  H8       1.0000 0.15140  0.45580  0.45580  Biso   1.000  H
  H9       1.0000 0.45580  0.15140  0.45580  Biso   1.000  H
  H10      1.0000 0.45580  0.93700  0.45580  Biso   1.000  H
  H11      1.0000 0.93700  0.45580  0.15140  Biso   1.000  H
  H12      1.0000 0.15140  0.45580  0.93700  Biso   1.000  H
  H13      1.0000 0.54420  0.54420  0.06300  Biso   1.000  H
  H14      1.0000 0.54420  0.54420  0.84860  Biso   1.000  H
  H15      1.0000 0.84860  0.06300  0.54420  Biso   1.000  H
  H16      1.0000 0.06300  0.84860  0.54420  Biso   1.000  H
  H17      1.0000 0.06300  0.54420  0.84860  Biso   1.000  H
  H18      1.0000 0.84860  0.54420  0.06300  Biso   1.000  H
  H19      1.0000 0.54420  0.06300  0.54420  Biso   1.000  H
  H20      1.0000 0.54420  0.84860  0.54420  Biso   1.000  H
  H21      1.0000 0.84860  0.54420  0.54420  Biso   1.000  H
  H22      1.0000 0.06300  0.54420  0.54420  Biso   1.000  H
  H23      1.0000 0.54420  0.06300  0.84860  Biso   1.000  H
  H24      1.0000 0.54420  0.84860  0.06300  Biso   1.000  H
  C1       1.0000 0.47350  0.47350  0.96390  Biso   1.000  C
  C2       1.0000 0.47350  0.47350  0.08910  Biso   1.000  C
  C3       1.0000 0.96390  0.08910  0.47350  Biso   1.000  C
  C4       1.0000 0.08910  0.96390  0.47350  Biso   1.000  C
  C5       1.0000 0.47350  0.96390  0.08910  Biso   1.000  C
  C6       1.0000 0.47350  0.08910  0.96390  Biso   1.000  C
  C7       1.0000 0.96390  0.47350  0.47350  Biso   1.000  C
  C8       1.0000 0.08910  0.47350  0.47350  Biso   1.000  C
  C9       1.0000 0.47350  0.08910  0.47350  Biso   1.000  C
  C10      1.0000 0.47350  0.96390  0.47350  Biso   1.000  C
  C11      1.0000 0.96390  0.47350  0.08910  Biso   1.000  C
  C12      1.0000 0.08910  0.47350  0.96390  Biso   1.000  C
  C13      1.0000 0.52650  0.52650  0.03610  Biso   1.000  C
  C14      1.0000 0.52650  0.52650  0.91090  Biso   1.000  C
  C15      1.0000 0.91090  0.03610  0.52650  Biso   1.000  C
  C16      1.0000 0.03610  0.91090  0.52650  Biso   1.000  C
  C17      1.0000 0.03610  0.52650  0.91090  Biso   1.000  C
  C18      1.0000 0.91090  0.52650  0.03610  Biso   1.000  C
  C19      1.0000 0.52650  0.03610  0.52650  Biso   1.000  C
  C20      1.0000 0.52650  0.91090  0.52650  Biso   1.000  C
  C21      1.0000 0.91090  0.52650  0.52650  Biso   1.000  C
  C22      1.0000 0.03610  0.52650  0.52650  Biso   1.000  C
  C23      1.0000 0.52650  0.03610  0.91090  Biso   1.000  C
  C24      1.0000 0.52650  0.91090  0.03610  Biso   1.000  C
  C25      1.0000 0.38850  0.38850  0.11150  Biso   1.000  C
  C26      1.0000 0.44660  0.44660  0.05340  Biso   1.000  C
  C27      1.0000 0.11150  0.11150  0.38850  Biso   1.000  C
  C28      1.0000 0.05340  0.05340  0.44660  Biso   1.000  C
  C29      1.0000 0.38850  0.11150  0.11150  Biso   1.000  C
  C30      1.0000 0.44660  0.05340  0.05340  Biso   1.000  C
  C31      1.0000 0.11150  0.38850  0.38850  Biso   1.000  C
  C32      1.0000 0.05340  0.44660  0.44660  Biso   1.000  C
  C33      1.0000 0.38850  0.11150  0.38850  Biso   1.000  C
  C34      1.0000 0.44660  0.05340  0.44660  Biso   1.000  C
  C35      1.0000 0.11150  0.38850  0.11150  Biso   1.000  C
  C36      1.0000 0.05340  0.44660  0.05340  Biso   1.000  C
  C37      1.0000 0.61150  0.61150  0.88850  Biso   1.000  C
  C38      1.0000 0.55340  0.55340  0.94660  Biso   1.000  C
  C39      1.0000 0.88850  0.88850  0.61150  Biso   1.000  C
  C40      1.0000 0.94660  0.94660  0.55340  Biso   1.000  C
  C41      1.0000 0.88850  0.61150  0.88850  Biso   1.000  C
  C42      1.0000 0.94660  0.55340  0.94660  Biso   1.000  C
  C43      1.0000 0.61150  0.88850  0.61150  Biso   1.000  C
  C44      1.0000 0.55340  0.94660  0.55340  Biso   1.000  C
  C45      1.0000 0.88850  0.61150  0.61150  Biso   1.000  C
  C46      1.0000 0.94660  0.55340  0.55340  Biso   1.000  C
  C47      1.0000 0.61150  0.88850  0.88850  Biso   1.000  C
  C48      1.0000 0.55340  0.94660  0.94660  Biso   1.000  C
  O1       1.0000 0.25000  0.25000  0.25000  Biso   1.000  O
  O2       1.0000 0.75000  0.75000  0.75000  Biso   1.000  O
  O3       1.0000 0.36609  0.36609  0.07351  Biso   1.000  O
  O4       1.0000 0.36609  0.36609  0.19431  Biso   1.000  O
  O5       1.0000 0.07351  0.19431  0.36609  Biso   1.000  O
  O6       1.0000 0.19431  0.07351  0.36609  Biso   1.000  O
  O7       1.0000 0.36609  0.07351  0.19431  Biso   1.000  O
  O8       1.0000 0.36609  0.19431  0.07351  Biso   1.000  O
  O9       1.0000 0.07351  0.36609  0.36609  Biso   1.000  O
  O10      1.0000 0.19431  0.36609  0.36609  Biso   1.000  O
  O11      1.0000 0.36609  0.19431  0.36609  Biso   1.000  O
  O12      1.0000 0.36609  0.07351  0.36609  Biso   1.000  O
  O13      1.0000 0.07351  0.36609  0.19431  Biso   1.000  O
  O14      1.0000 0.19431  0.36609  0.07351  Biso   1.000  O
  O15      1.0000 0.63391  0.63391  0.92649  Biso   1.000  O
  O16      1.0000 0.63391  0.63391  0.80569  Biso   1.000  O
  O17      1.0000 0.80569  0.92649  0.63391  Biso   1.000  O
  O18      1.0000 0.92649  0.80569  0.63391  Biso   1.000  O
  O19      1.0000 0.92649  0.63391  0.80569  Biso   1.000  O
  O20      1.0000 0.80569  0.63391  0.92649  Biso   1.000  O
  O21      1.0000 0.63391  0.92649  0.63391  Biso   1.000  O
  O22      1.0000 0.63391  0.80569  0.63391  Biso   1.000  O
  O23      1.0000 0.80569  0.63391  0.63391  Biso   1.000  O
  O24      1.0000 0.92649  0.63391  0.63391  Biso   1.000  O
  O25      1.0000 0.63391  0.92649  0.80569  Biso   1.000  O
  O26      1.0000 0.63391  0.80569  0.92649  Biso   1.000  O
  Zn9      1.0000 0.89488  0.75718  0.43381  Biso   1.000  Zn
  Zn10     1.0000 0.06985  0.75718  0.25884  Biso   1.000  Zn
  Zn11     1.0000 0.89488  0.75718  0.25884  Biso   1.000  Zn
  Zn12     1.0000 0.89488  0.93215  0.25884  Biso   1.000  Zn
  Zn13     1.0000 0.48989  0.34215  0.66884  Biso   1.000  Zn
  Zn14     1.0000 0.31493  0.34215  0.84381  Biso   1.000  Zn
  Zn15     1.0000 0.48989  0.16718  0.84381  Biso   1.000  Zn
  Zn16     1.0000 0.48989  0.34215  0.84381  Biso   1.000  Zn
  H25      1.0000 0.04143  0.59419  0.61323  Biso   1.000  H
  H26      1.0000 0.25430  0.59419  0.40037  Biso   1.000  H
  H27      1.0000 0.73691  0.89871  0.09585  Biso   1.000  H
  H28      1.0000 0.73691  0.11158  0.09585  Biso   1.000  H
  H29      1.0000 0.73691  0.11158  0.40037  Biso   1.000  H
  H30      1.0000 0.73691  0.89871  0.61323  Biso   1.000  H
  H31      1.0000 0.04143  0.59419  0.09585  Biso   1.000  H
  H32      1.0000 0.25430  0.59419  0.09585  Biso   1.000  H
  H33      1.0000 0.25430  0.89871  0.09585  Biso   1.000  H
  H34      1.0000 0.04143  0.11158  0.09585  Biso   1.000  H
  H35      1.0000 0.73691  0.59419  0.40037  Biso   1.000  H
  H36      1.0000 0.73691  0.59419  0.61323  Biso   1.000  H
  H37      1.0000 0.34334  0.50514  0.48941  Biso   1.000  H
  H38      1.0000 0.13048  0.50514  0.70228  Biso   1.000  H
  H39      1.0000 0.64786  0.98776  0.00680  Biso   1.000  H
  H40      1.0000 0.64786  0.20062  0.00680  Biso   1.000  H
  H41      1.0000 0.64786  0.50514  0.70228  Biso   1.000  H
  H42      1.0000 0.64786  0.50514  0.48941  Biso   1.000  H
  H43      1.0000 0.34334  0.98776  0.00680  Biso   1.000  H
  H44      1.0000 0.13048  0.20062  0.00680  Biso   1.000  H
  H45      1.0000 0.13048  0.50514  0.00680  Biso   1.000  H
  H46      1.0000 0.34334  0.50514  0.00680  Biso   1.000  H
  H47      1.0000 0.64786  0.98776  0.70228  Biso   1.000  H
  H48      1.0000 0.64786  0.20062  0.48941  Biso   1.000  H
  C49      1.0000 0.10374  0.57638  0.58654  Biso   1.000  C
  C50      1.0000 0.22760  0.57638  0.46268  Biso   1.000  C
  C51      1.0000 0.71910  0.96102  0.07804  Biso   1.000  C
  C52      1.0000 0.71910  0.08488  0.07804  Biso   1.000  C
  C53      1.0000 0.71910  0.08488  0.46268  Biso   1.000  C
  C54      1.0000 0.71910  0.96102  0.58654  Biso   1.000  C
  C55      1.0000 0.10374  0.57638  0.07804  Biso   1.000  C
  C56      1.0000 0.22760  0.57638  0.07804  Biso   1.000  C
  C57      1.0000 0.22760  0.96102  0.07804  Biso   1.000  C
  C58      1.0000 0.10374  0.08488  0.07804  Biso   1.000  C
  C59      1.0000 0.71910  0.57638  0.46268  Biso   1.000  C
  C60      1.0000 0.71910  0.57638  0.58654  Biso   1.000  C
  C61      1.0000 0.28103  0.52295  0.51611  Biso   1.000  C
  C62      1.0000 0.15717  0.52295  0.63997  Biso   1.000  C
  C63      1.0000 0.66567  0.01445  0.02461  Biso   1.000  C
  C64      1.0000 0.66567  0.13831  0.02461  Biso   1.000  C
  C65      1.0000 0.66567  0.52295  0.63997  Biso   1.000  C
  C66      1.0000 0.66567  0.52295  0.51611  Biso   1.000  C
  C67      1.0000 0.28103  0.01445  0.02461  Biso   1.000  C
  C68      1.0000 0.15717  0.13831  0.02461  Biso   1.000  C
  C69      1.0000 0.15717  0.52295  0.02461  Biso   1.000  C
  C70      1.0000 0.28103  0.52295  0.02461  Biso   1.000  C
  C71      1.0000 0.66567  0.01445  0.63997  Biso   1.000  C
  C72      1.0000 0.66567  0.13831  0.51611  Biso   1.000  C
  C73      1.0000 0.07790  0.66165  0.44186  Biso   1.000  C
  C74      1.0000 0.13586  0.60369  0.49982  Biso   1.000  C
  C75      1.0000 0.79934  0.94020  0.16330  Biso   1.000  C
  C76      1.0000 0.74138  0.99816  0.10534  Biso   1.000  C
  C77      1.0000 0.79934  0.94020  0.44186  Biso   1.000  C
  C78      1.0000 0.74138  0.99816  0.49982  Biso   1.000  C
  C79      1.0000 0.07790  0.66165  0.16330  Biso   1.000  C
  C80      1.0000 0.13586  0.60369  0.10534  Biso   1.000  C
  C81      1.0000 0.07790  0.94020  0.16330  Biso   1.000  C
  C82      1.0000 0.13586  0.99816  0.10534  Biso   1.000  C
  C83      1.0000 0.79934  0.66165  0.44186  Biso   1.000  C
  C84      1.0000 0.74138  0.60369  0.49982  Biso   1.000  C
  C85      1.0000 0.30688  0.43769  0.66079  Biso   1.000  C
  C86      1.0000 0.24892  0.49565  0.60283  Biso   1.000  C
  C87      1.0000 0.58543  0.15913  0.93934  Biso   1.000  C
  C88      1.0000 0.64339  0.10117  0.99730  Biso   1.000  C
  C89      1.0000 0.58543  0.43769  0.66079  Biso   1.000  C
  C90      1.0000 0.64339  0.49565  0.60283  Biso   1.000  C
  C91      1.0000 0.30688  0.15913  0.93934  Biso   1.000  C
  C92      1.0000 0.24892  0.10117  0.99730  Biso   1.000  C
  C93      1.0000 0.30688  0.43769  0.93934  Biso   1.000  C
  C94      1.0000 0.24892  0.49565  0.99730  Biso   1.000  C
  C95      1.0000 0.58543  0.15913  0.66079  Biso   1.000  C
  C96      1.0000 0.64339  0.10117  0.60283  Biso   1.000  C
  O27      1.0000 0.93862  0.80092  0.30258  Biso   1.000  O
  O28      1.0000 0.44615  0.29841  0.80007  Biso   1.000  O
  O29      1.0000 0.99411  0.68417  0.48060  Biso   1.000  O
  O30      1.0000 0.11664  0.68417  0.35807  Biso   1.000  O
  O31      1.0000 0.82187  0.85641  0.18583  Biso   1.000  O
  O32      1.0000 0.82187  0.97894  0.18583  Biso   1.000  O
  O33      1.0000 0.82187  0.97894  0.35807  Biso   1.000  O
  O34      1.0000 0.82187  0.85641  0.48060  Biso   1.000  O
  O35      1.0000 0.99411  0.68417  0.18583  Biso   1.000  O
  O36      1.0000 0.11664  0.68417  0.18583  Biso   1.000  O
  O37      1.0000 0.11664  0.85641  0.18583  Biso   1.000  O
  O38      1.0000 0.99411  0.97894  0.18583  Biso   1.000  O
  O39      1.0000 0.82187  0.68417  0.35807  Biso   1.000  O
  O40      1.0000 0.82187  0.68417  0.48060  Biso   1.000  O
  O41      1.0000 0.39067  0.41516  0.62205  Biso   1.000  O
  O42      1.0000 0.26813  0.41516  0.74458  Biso   1.000  O
  O43      1.0000 0.56291  0.12039  0.91682  Biso   1.000  O
  O44      1.0000 0.56291  0.24292  0.91682  Biso   1.000  O
  O45      1.0000 0.56291  0.41516  0.74458  Biso   1.000  O
  O46      1.0000 0.56291  0.41516  0.62205  Biso   1.000  O
  O47      1.0000 0.39067  0.12039  0.91682  Biso   1.000  O
  O48      1.0000 0.26813  0.24292  0.91682  Biso   1.000  O
  O49      1.0000 0.26813  0.41516  0.91682  Biso   1.000  O
  O50      1.0000 0.39067  0.41516  0.91682  Biso   1.000  O
  O51      1.0000 0.56291  0.12039  0.74458  Biso   1.000  O
  O52      1.0000 0.56291  0.24292  0.62205  Biso   1.000  O
