data_image0
_cell_length_a       21.983
_cell_length_b       21.983
_cell_length_c       21.983
_cell_angle_alpha    90
_cell_angle_beta     90
_cell_angle_gamma    90

_symmetry_space_group_name_H-M    "P 1"
_symmetry_int_tables_number       1

loop_
  _symmetry_equiv_pos_as_xyz
  'x, y, z'

loop_
  _atom_site_label
  _atom_site_occupancy
  _atom_site_fract_x
  _atom_site_fract_y
  _atom_site_fract_z
  _atom_site_thermal_displace_type
  _atom_site_B_iso_or_equiv
  _atom_site_type_symbol
  C1       1.0000 0.55777  0.00058  0.62807  Biso   1.000  C
  C2       1.0000 0.50199  0.00010  0.65941  Biso   1.000  C
  C3       1.0000 0.44609  0.99969  0.62843  Biso   1.000  C
  C4       1.0000 0.44554  0.00002  0.56392  Biso   1.000  C
  C5       1.0000 0.50138  0.00024  0.53124  Biso   1.000  C
  C6       1.0000 0.55764  0.00040  0.56337  Biso   1.000  C
  C7       1.0000 0.61217  0.00036  0.52984  Biso   1.000  C
  C8       1.0000 0.61174  0.00008  0.46640  Biso   1.000  C
  C9       1.0000 0.55675  0.00006  0.43351  Biso   1.000  C
  C10      1.0000 0.50090  0.00029  0.46622  Biso   1.000  C
  C11      1.0000 0.39055  0.00012  0.53120  Biso   1.000  C
  C12      1.0000 0.39007  0.00048  0.46777  Biso   1.000  C
  C13      1.0000 0.44459  0.00053  0.43417  Biso   1.000  C
  C14      1.0000 0.44432  0.00080  0.36949  Biso   1.000  C
  C15      1.0000 0.50004  0.00031  0.33802  Biso   1.000  C
  C16      1.0000 0.55610  0.99981  0.36888  Biso   1.000  C
  C17      1.0000 0.65590  0.00043  0.55251  Biso   1.000  C
  C18      1.0000 0.65520  0.99998  0.44323  Biso   1.000  C
  C19      1.0000 0.34715  0.00001  0.55446  Biso   1.000  C
  C20      1.0000 0.34631  0.00061  0.44517  Biso   1.000  C
  C21      1.0000 0.50197  0.00002  0.70879  Biso   1.000  C
  C22      1.0000 0.49977  0.00031  0.28860  Biso   1.000  C
  C23      1.0000 0.44224  0.37200  0.00067  Biso   1.000  C
  C24      1.0000 0.49796  0.34065  0.00014  Biso   1.000  C
  C25      1.0000 0.55383  0.37161  0.99970  Biso   1.000  C
  C26      1.0000 0.55443  0.43610  0.00004  Biso   1.000  C
  C27      1.0000 0.49862  0.46879  0.00031  Biso   1.000  C
  C28      1.0000 0.44235  0.43668  0.00050  Biso   1.000  C
  C29      1.0000 0.38781  0.47020  0.00051  Biso   1.000  C
  C30      1.0000 0.38826  0.53363  0.00025  Biso   1.000  C
  C31      1.0000 0.44327  0.56649  0.00019  Biso   1.000  C
  C32      1.0000 0.49910  0.53377  0.00036  Biso   1.000  C
  C33      1.0000 0.60944  0.46879  0.00010  Biso   1.000  C
  C34      1.0000 0.60994  0.53220  0.00047  Biso   1.000  C
  C35      1.0000 0.55542  0.56580  0.00057  Biso   1.000  C
  C36      1.0000 0.55566  0.63045  0.00085  Biso   1.000  C
  C37      1.0000 0.50000  0.66194  0.00042  Biso   1.000  C
  C38      1.0000 0.44397  0.63110  0.99996  Biso   1.000  C
  C39      1.0000 0.34409  0.44753  0.00061  Biso   1.000  C
  C40      1.0000 0.34481  0.55683  0.00018  Biso   1.000  C
  C41      1.0000 0.65283  0.44550  0.99995  Biso   1.000  C
  C42      1.0000 0.65370  0.55481  0.00057  Biso   1.000  C
  C43      1.0000 0.49798  0.29126  0.00005  Biso   1.000  C
  C44      1.0000 0.50028  0.71136  0.00042  Biso   1.000  C
  C45      1.0000 0.00048  0.36959  0.44442  Biso   1.000  C
  C46      1.0000 0.00001  0.33807  0.50004  Biso   1.000  C
  C47      1.0000 0.99966  0.36893  0.55605  Biso   1.000  C
  C48      1.0000 0.00003  0.43351  0.55676  Biso   1.000  C
  C49      1.0000 0.00025  0.46621  0.50095  Biso   1.000  C
  C50      1.0000 0.00036  0.43421  0.44465  Biso   1.000  C
  C51      1.0000 0.00033  0.46778  0.39012  Biso   1.000  C
  C52      1.0000 0.00012  0.53116  0.39062  Biso   1.000  C
  C53      1.0000 0.00014  0.56381  0.44564  Biso   1.000  C
  C54      1.0000 0.00034  0.53115  0.50144  Biso   1.000  C
  C55      1.0000 0.00017  0.46633  0.61179  Biso   1.000  C
  C56      1.0000 0.00055  0.52973  0.61224  Biso   1.000  C
  C57      1.0000 0.00061  0.56323  0.55769  Biso   1.000  C
  C58      1.0000 0.00090  0.62786  0.55779  Biso   1.000  C
  C59      1.0000 0.00045  0.65925  0.50210  Biso   1.000  C
  C60      1.0000 0.99996  0.62826  0.44626  Biso   1.000  C
  C61      1.0000 0.00036  0.44519  0.34635  Biso   1.000  C
  C62      1.0000 0.00002  0.55444  0.34722  Biso   1.000  C
  C63      1.0000 0.00007  0.44314  0.65524  Biso   1.000  C
  C64      1.0000 0.00070  0.55239  0.65598  Biso   1.000  C
  C65      1.0000 0.99991  0.28865  0.49975  Biso   1.000  C
  C66      1.0000 0.00046  0.70864  0.50209  Biso   1.000  C
  C67      1.0000 0.84386  0.00176  0.91858  Biso   1.000  C
  C68      1.0000 0.15624  0.99799  0.91919  Biso   1.000  C
  C69      1.0000 0.99762  0.08141  0.84290  Biso   1.000  C
  C70      1.0000 0.00255  0.91781  0.84308  Biso   1.000  C
  C71      1.0000 0.00211  0.84200  0.91582  Biso   1.000  C
  C72      1.0000 0.99789  0.15755  0.91533  Biso   1.000  C
  C73      1.0000 0.08411  0.99806  0.84333  Biso   1.000  C
  C74      1.0000 0.91623  0.00131  0.84298  Biso   1.000  C
  C75      1.0000 0.00010  0.99974  0.89258  Biso   1.000  C
  C76      1.0000 0.05476  0.94418  0.94500  Biso   1.000  C
  C77      1.0000 0.94540  0.05563  0.94466  Biso   1.000  C
  C78      1.0000 0.85993  0.00253  0.86186  Biso   1.000  C
  C79      1.0000 0.14031  0.99692  0.86246  Biso   1.000  C
  C80      1.0000 0.99658  0.13817  0.85909  Biso   1.000  C
  C81      1.0000 0.00340  0.86108  0.85949  Biso   1.000  C
  C82      1.0000 0.08062  0.08113  0.91908  Biso   1.000  C
  C83      1.0000 0.05427  0.05557  0.94505  Biso   1.000  C
  C84      1.0000 0.91943  0.91855  0.91909  Biso   1.000  C
  C85      1.0000 0.94576  0.94418  0.94503  Biso   1.000  C
  C86      1.0000 0.15620  0.00252  0.08131  Biso   1.000  C
  C87      1.0000 0.84373  0.99766  0.08083  Biso   1.000  C
  C88      1.0000 0.08401  0.15805  0.00163  Biso   1.000  C
  C89      1.0000 0.08454  0.84238  0.99851  Biso   1.000  C
  C90      1.0000 0.91576  0.84204  0.00197  Biso   1.000  C
  C91      1.0000 0.91554  0.15766  0.99804  Biso   1.000  C
  C92      1.0000 0.00205  0.08195  0.15711  Biso   1.000  C
  C93      1.0000 0.99759  0.91847  0.15718  Biso   1.000  C
  C94      1.0000 0.00159  0.15788  0.08449  Biso   1.000  C
  C95      1.0000 0.99820  0.84238  0.08471  Biso   1.000  C
  C96      1.0000 0.15597  0.08178  0.00227  Biso   1.000  C
  C97      1.0000 0.84387  0.08111  0.99741  Biso   1.000  C
  C98      1.0000 0.84393  0.91843  0.00217  Biso   1.000  C
  C99      1.0000 0.15616  0.91900  0.99805  Biso   1.000  C
  C100     1.0000 0.08395  0.00198  0.15703  Biso   1.000  C
  C101     1.0000 0.91582  0.99835  0.15674  Biso   1.000  C
  C102     1.0000 0.10555  0.00025  0.00020  Biso   1.000  C
  C103     1.0000 0.89443  0.99981  0.99983  Biso   1.000  C
  C104     1.0000 0.99986  0.10924  0.99995  Biso   1.000  C
  C105     1.0000 0.00010  0.89074  0.00018  Biso   1.000  C
  C106     1.0000 0.99992  0.00017  0.10752  Biso   1.000  C
  C107     1.0000 0.94540  0.94421  0.05527  Biso   1.000  C
  C108     1.0000 0.05453  0.05605  0.05535  Biso   1.000  C
  C109     1.0000 0.14024  0.00335  0.13804  Biso   1.000  C
  C110     1.0000 0.85962  0.99688  0.13757  Biso   1.000  C
  C111     1.0000 0.14015  0.13866  0.00293  Biso   1.000  C
  C112     1.0000 0.14058  0.86209  0.99723  Biso   1.000  C
  C113     1.0000 0.85963  0.86155  0.00314  Biso   1.000  C
  C114     1.0000 0.85951  0.13800  0.99662  Biso   1.000  C
  C115     1.0000 0.00289  0.13869  0.14082  Biso   1.000  C
  C116     1.0000 0.99677  0.86172  0.14093  Biso   1.000  C
  C117     1.0000 0.91910  0.08109  0.08077  Biso   1.000  C
  C118     1.0000 0.94553  0.05554  0.05487  Biso   1.000  C
  C119     1.0000 0.08073  0.91912  0.08116  Biso   1.000  C
  C120     1.0000 0.05433  0.94460  0.05514  Biso   1.000  C
  C121     1.0000 0.29230  0.00429  0.26465  Biso   1.000  C
  C122     1.0000 0.23269  0.99587  0.28642  Biso   1.000  C
  C123     1.0000 0.18270  0.99639  0.24603  Biso   1.000  C
  C124     1.0000 0.19158  0.00512  0.18310  Biso   1.000  C
  C125     1.0000 0.25167  0.01427  0.16222  Biso   1.000  C
  C126     1.0000 0.30111  0.01383  0.20236  Biso   1.000  C
  C127     1.0000 0.34512  0.00275  0.30487  Biso   1.000  C
  C128     1.0000 0.39102  0.00173  0.33592  Biso   1.000  C
  C129     1.0000 0.22484  0.98849  0.33449  Biso   1.000  C
  C130     1.0000 0.13738  0.98917  0.26392  Biso   1.000  C
  C131     1.0000 0.26092  0.02160  0.11440  Biso   1.000  C
  C132     1.0000 0.34656  0.02061  0.18452  Biso   1.000  C
  C133     1.0000 0.70752  0.99602  0.26364  Biso   1.000  C
  C134     1.0000 0.69885  0.98570  0.20149  Biso   1.000  C
  C135     1.0000 0.74834  0.98518  0.16150  Biso   1.000  C
  C136     1.0000 0.80828  0.99505  0.18246  Biso   1.000  C
  C137     1.0000 0.81701  0.00450  0.24528  Biso   1.000  C
  C138     1.0000 0.76697  0.00509  0.28551  Biso   1.000  C
  C139     1.0000 0.65474  0.99770  0.30369  Biso   1.000  C
  C140     1.0000 0.60899  0.99882  0.33483  Biso   1.000  C
  C141     1.0000 0.65348  0.97839  0.18365  Biso   1.000  C
  C142     1.0000 0.73927  0.97726  0.11373  Biso   1.000  C
  C143     1.0000 0.86224  0.01228  0.26317  Biso   1.000  C
  C144     1.0000 0.77464  0.01307  0.33352  Biso   1.000  C
  C145     1.0000 0.70889  0.00350  0.73408  Biso   1.000  C
  C146     1.0000 0.76882  0.99678  0.71265  Biso   1.000  C
  C147     1.0000 0.81841  0.99715  0.75348  Biso   1.000  C
  C148     1.0000 0.80883  0.00406  0.81655  Biso   1.000  C
  C149     1.0000 0.74839  0.01139  0.83714  Biso   1.000  C
  C150     1.0000 0.69934  0.01109  0.79653  Biso   1.000  C
  C151     1.0000 0.65653  0.00224  0.69330  Biso   1.000  C
  C152     1.0000 0.61092  0.00137  0.66185  Biso   1.000  C
  C153     1.0000 0.77724  0.99091  0.66446  Biso   1.000  C
  C154     1.0000 0.86401  0.99138  0.73580  Biso   1.000  C
  C155     1.0000 0.73861  0.01722  0.88506  Biso   1.000  C
  C156     1.0000 0.65360  0.01651  0.81411  Biso   1.000  C
  C157     1.0000 0.29196  0.99598  0.73596  Biso   1.000  C
  C158     1.0000 0.23237  0.00430  0.71419  Biso   1.000  C
  C159     1.0000 0.18250  0.00377  0.75460  Biso   1.000  C
  C160     1.0000 0.19155  0.99513  0.81750  Biso   1.000  C
  C161     1.0000 0.25163  0.98605  0.83838  Biso   1.000  C
  C162     1.0000 0.30096  0.98651  0.79821  Biso   1.000  C
  C163     1.0000 0.34454  0.99757  0.69570  Biso   1.000  C
  C164     1.0000 0.39015  0.99866  0.66442  Biso   1.000  C
  C165     1.0000 0.22447  0.01162  0.66612  Biso   1.000  C
  C166     1.0000 0.13715  0.01092  0.73677  Biso   1.000  C
  C167     1.0000 0.26092  0.97880  0.88621  Biso   1.000  C
  C168     1.0000 0.34646  0.97980  0.81596  Biso   1.000  C
  C169     1.0000 0.29134  0.26599  0.00375  Biso   1.000  C
  C170     1.0000 0.23155  0.28746  0.99630  Biso   1.000  C
  C171     1.0000 0.18194  0.24672  0.99672  Biso   1.000  C
  C172     1.0000 0.19138  0.18373  0.00442  Biso   1.000  C
  C173     1.0000 0.25168  0.16308  0.01246  Biso   1.000  C
  C174     1.0000 0.30079  0.20361  0.01211  Biso   1.000  C
  C175     1.0000 0.34365  0.30672  0.00242  Biso   1.000  C
  C176     1.0000 0.38917  0.33821  0.00150  Biso   1.000  C
  C177     1.0000 0.22325  0.33559  0.98981  Biso   1.000  C
  C178     1.0000 0.13643  0.26442  0.99034  Biso   1.000  C
  C179     1.0000 0.26130  0.11520  0.01889  Biso   1.000  C
  C180     1.0000 0.34646  0.18605  0.01808  Biso   1.000  C
  C181     1.0000 0.29284  0.73645  0.99642  Biso   1.000  C
  C182     1.0000 0.30153  0.79868  0.98655  Biso   1.000  C
  C183     1.0000 0.25200  0.83862  0.98608  Biso   1.000  C
  C184     1.0000 0.19208  0.81747  0.99553  Biso   1.000  C
  C185     1.0000 0.18338  0.75459  0.00461  Biso   1.000  C
  C186     1.0000 0.23342  0.71444  0.00516  Biso   1.000  C
  C187     1.0000 0.34553  0.69640  0.99798  Biso   1.000  C
  C188     1.0000 0.39117  0.66519  0.99902  Biso   1.000  C
  C189     1.0000 0.34691  0.81660  0.97954  Biso   1.000  C
  C190     1.0000 0.26101  0.88645  0.97849  Biso   1.000  C
  C191     1.0000 0.13816  0.73658  0.01210  Biso   1.000  C
  C192     1.0000 0.22578  0.66637  0.01280  Biso   1.000  C
  C193     1.0000 0.70743  0.73535  0.00414  Biso   1.000  C
  C194     1.0000 0.76699  0.71346  0.99590  Biso   1.000  C
  C195     1.0000 0.81698  0.75377  0.99636  Biso   1.000  C
  C196     1.0000 0.80815  0.81674  0.00485  Biso   1.000  C
  C197     1.0000 0.74809  0.83777  0.01376  Biso   1.000  C
  C198     1.0000 0.69863  0.79768  0.01338  Biso   1.000  C
  C199     1.0000 0.65470  0.69514  0.00270  Biso   1.000  C
  C200     1.0000 0.60889  0.66404  0.00172  Biso   1.000  C
  C201     1.0000 0.77480  0.66535  0.98873  Biso   1.000  C
  C202     1.0000 0.86228  0.73578  0.98929  Biso   1.000  C
  C203     1.0000 0.73892  0.88565  0.02086  Biso   1.000  C
  C204     1.0000 0.65317  0.81558  0.01999  Biso   1.000  C
  C205     1.0000 0.70770  0.26403  0.99582  Biso   1.000  C
  C206     1.0000 0.76714  0.28582  0.00486  Biso   1.000  C
  C207     1.0000 0.81704  0.24552  0.00428  Biso   1.000  C
  C208     1.0000 0.80815  0.18271  0.99487  Biso   1.000  C
  C209     1.0000 0.74822  0.16178  0.98511  Biso   1.000  C
  C210     1.0000 0.69883  0.20188  0.98561  Biso   1.000  C
  C211     1.0000 0.65518  0.30424  0.99748  Biso   1.000  C
  C212     1.0000 0.60966  0.33559  0.99862  Biso   1.000  C
  C213     1.0000 0.77491  0.33382  0.01278  Biso   1.000  C
  C214     1.0000 0.86229  0.26336  0.01202  Biso   1.000  C
  C215     1.0000 0.73911  0.11401  0.97726  Biso   1.000  C
  C216     1.0000 0.65340  0.18415  0.97837  Biso   1.000  C
  C217     1.0000 0.00386  0.26517  0.29254  Biso   1.000  C
  C218     1.0000 0.99428  0.28685  0.23310  Biso   1.000  C
  C219     1.0000 0.99482  0.24649  0.18316  Biso   1.000  C
  C220     1.0000 0.00472  0.18375  0.19201  Biso   1.000  C
  C221     1.0000 0.01504  0.16300  0.25194  Biso   1.000  C
  C222     1.0000 0.01457  0.20311  0.30131  Biso   1.000  C
  C223     1.0000 0.00228  0.30524  0.34528  Biso   1.000  C
  C224     1.0000 0.00130  0.33614  0.39117  Biso   1.000  C
  C225     1.0000 0.98596  0.33479  0.22537  Biso   1.000  C
  C226     1.0000 0.98664  0.26422  0.13794  Biso   1.000  C
  C227     1.0000 0.02331  0.11532  0.26110  Biso   1.000  C
  C228     1.0000 0.02224  0.18543  0.34669  Biso   1.000  C
  C229     1.0000 0.99564  0.26407  0.70729  Biso   1.000  C
  C230     1.0000 0.98384  0.20219  0.69873  Biso   1.000  C
  C231     1.0000 0.98326  0.16225  0.74819  Biso   1.000  C
  C232     1.0000 0.99456  0.18304  0.80791  Biso   1.000  C
  C233     1.0000 0.00544  0.24563  0.81655  Biso   1.000  C
  C234     1.0000 0.00609  0.28581  0.76654  Biso   1.000  C
  C235     1.0000 0.99747  0.30395  0.65457  Biso   1.000  C
  C236     1.0000 0.99864  0.33496  0.60885  Biso   1.000  C
  C237     1.0000 0.97546  0.18453  0.65347  Biso   1.000  C
  C238     1.0000 0.97418  0.11466  0.73927  Biso   1.000  C
  C239     1.0000 0.01439  0.26332  0.86163  Biso   1.000  C
  C240     1.0000 0.01523  0.33364  0.77404  Biso   1.000  C
  C241     1.0000 0.00430  0.73344  0.70877  Biso   1.000  C
  C242     1.0000 0.01343  0.79566  0.69926  Biso   1.000  C
  C243     1.0000 0.01386  0.83623  0.74827  Biso   1.000  C
  C244     1.0000 0.00510  0.81577  0.80853  Biso   1.000  C
  C245     1.0000 0.99669  0.75290  0.81807  Biso   1.000  C
  C246     1.0000 0.99620  0.71210  0.76853  Biso   1.000  C
  C247     1.0000 0.00280  0.69282  0.65648  Biso   1.000  C
  C248     1.0000 0.00180  0.66153  0.61087  Biso   1.000  C
  C249     1.0000 0.01992  0.81308  0.65360  Biso   1.000  C
  C250     1.0000 0.02087  0.88401  0.73857  Biso   1.000  C
  C251     1.0000 0.98973  0.73538  0.86357  Biso   1.000  C
  C252     1.0000 0.98910  0.66406  0.77682  Biso   1.000  C
  C253     1.0000 0.99599  0.73538  0.29229  Biso   1.000  C
  C254     1.0000 0.00583  0.71376  0.23291  Biso   1.000  C
  C255     1.0000 0.00518  0.75411  0.18307  Biso   1.000  C
  C256     1.0000 0.99490  0.81676  0.19202  Biso   1.000  C
  C257     1.0000 0.98426  0.83746  0.25189  Biso   1.000  C
  C258     1.0000 0.98484  0.79733  0.30118  Biso   1.000  C
  C259     1.0000 0.99776  0.69530  0.34482  Biso   1.000  C
  C260     1.0000 0.99892  0.66415  0.39042  Biso   1.000  C
  C261     1.0000 0.01446  0.66587  0.22518  Biso   1.000  C
  C262     1.0000 0.01361  0.73649  0.13786  Biso   1.000  C
  C263     1.0000 0.97570  0.88510  0.26104  Biso   1.000  C
  C264     1.0000 0.97696  0.81489  0.34657  Biso   1.000  C
  O1       1.0000 0.98869  0.76396  0.02068  Biso   1.000  O
  O2       1.0000 0.98821  0.79530  0.96490  Biso   1.000  O
  O3       1.0000 0.98780  0.76432  0.90900  Biso   1.000  O
  O4       1.0000 0.98813  0.69981  0.90845  Biso   1.000  O
  O5       1.0000 0.98835  0.66713  0.96429  Biso   1.000  O
  O6       1.0000 0.98851  0.69926  0.02055  Biso   1.000  O
  O7       1.0000 0.98847  0.66573  0.07508  Biso   1.000  O
  O8       1.0000 0.98819  0.60229  0.07465  Biso   1.000  O
  O9       1.0000 0.98817  0.56940  0.01966  Biso   1.000  O
  O10      1.0000 0.98840  0.60211  0.96381  Biso   1.000  O
  O11      1.0000 0.98823  0.66709  0.85346  Biso   1.000  O
  O12      1.0000 0.98859  0.60366  0.85298  Biso   1.000  O
  O13      1.0000 0.98864  0.57006  0.90750  Biso   1.000  O
  O14      1.0000 0.98891  0.50538  0.90723  Biso   1.000  O
  O15      1.0000 0.98842  0.47391  0.96295  Biso   1.000  O
  O16      1.0000 0.98792  0.50477  0.01901  Biso   1.000  O
  O17      1.0000 0.98854  0.68840  0.11881  Biso   1.000  O
  O18      1.0000 0.98809  0.57912  0.11811  Biso   1.000  O
  O19      1.0000 0.98812  0.69035  0.81006  Biso   1.000  O
  O20      1.0000 0.98872  0.58106  0.80922  Biso   1.000  O
  O21      1.0000 0.98813  0.84468  0.96488  Biso   1.000  O
  O22      1.0000 0.98842  0.42449  0.96268  Biso   1.000  O
  O23      1.0000 0.36011  0.13656  0.90515  Biso   1.000  O
  O24      1.0000 0.32876  0.13603  0.96087  Biso   1.000  O
  O25      1.0000 0.35972  0.13559  0.01674  Biso   1.000  O
  O26      1.0000 0.42421  0.13593  0.01734  Biso   1.000  O
  O27      1.0000 0.45690  0.13620  0.96153  Biso   1.000  O
  O28      1.0000 0.42479  0.13639  0.90526  Biso   1.000  O
  O29      1.0000 0.45831  0.13640  0.85072  Biso   1.000  O
  O30      1.0000 0.52174  0.13614  0.85117  Biso   1.000  O
  O31      1.0000 0.55460  0.13608  0.90618  Biso   1.000  O
  O32      1.0000 0.52188  0.13625  0.96201  Biso   1.000  O
  O33      1.0000 0.45690  0.13599  0.07235  Biso   1.000  O
  O34      1.0000 0.52031  0.13636  0.07285  Biso   1.000  O
  O35      1.0000 0.55391  0.13646  0.01833  Biso   1.000  O
  O36      1.0000 0.61856  0.13674  0.01857  Biso   1.000  O
  O37      1.0000 0.65005  0.13631  0.96291  Biso   1.000  O
  O38      1.0000 0.61921  0.13585  0.90688  Biso   1.000  O
  O39      1.0000 0.43564  0.13650  0.80700  Biso   1.000  O
  O40      1.0000 0.54494  0.13607  0.80772  Biso   1.000  O
  O41      1.0000 0.43361  0.13584  0.11574  Biso   1.000  O
  O42      1.0000 0.54292  0.13646  0.11661  Biso   1.000  O
  O43      1.0000 0.27937  0.13594  0.96089  Biso   1.000  O
  O44      1.0000 0.69947  0.13631  0.96319  Biso   1.000  O
  O45      1.0000 0.35770  0.58031  0.46339  Biso   1.000  O
  O46      1.0000 0.32618  0.63593  0.46292  Biso   1.000  O
  O47      1.0000 0.35704  0.69194  0.46257  Biso   1.000  O
  O48      1.0000 0.42162  0.69265  0.46294  Biso   1.000  O
  O49      1.0000 0.45432  0.63684  0.46316  Biso   1.000  O
  O50      1.0000 0.42232  0.58054  0.46327  Biso   1.000  O
  O51      1.0000 0.45589  0.52601  0.46324  Biso   1.000  O
  O52      1.0000 0.51927  0.52651  0.46303  Biso   1.000  O
  O53      1.0000 0.55192  0.58153  0.46305  Biso   1.000  O
  O54      1.0000 0.51926  0.63733  0.46325  Biso   1.000  O
  O55      1.0000 0.45444  0.74768  0.46308  Biso   1.000  O
  O56      1.0000 0.51784  0.74813  0.46346  Biso   1.000  O
  O57      1.0000 0.55134  0.69358  0.46352  Biso   1.000  O
  O58      1.0000 0.61597  0.69368  0.46381  Biso   1.000  O
  O59      1.0000 0.64736  0.63799  0.46336  Biso   1.000  O
  O60      1.0000 0.61637  0.58215  0.46287  Biso   1.000  O
  O61      1.0000 0.43330  0.48224  0.46327  Biso   1.000  O
  O62      1.0000 0.54255  0.48311  0.46293  Biso   1.000  O
  O63      1.0000 0.43125  0.79113  0.46298  Biso   1.000  O
  O64      1.0000 0.54050  0.79187  0.46361  Biso   1.000  O
  O65      1.0000 0.27676  0.63564  0.46282  Biso   1.000  O
  O66      1.0000 0.69675  0.63798  0.46337  Biso   1.000  O
  O67      1.0000 0.98987  0.05447  0.30677  Biso   1.000  O
  O68      1.0000 0.98610  0.05508  0.61915  Biso   1.000  O
  O69      1.0000 0.06952  0.97879  0.46053  Biso   1.000  O
  O70      1.0000 0.90592  0.97897  0.46546  Biso   1.000  O
  O71      1.0000 0.83011  0.05171  0.46502  Biso   1.000  O
  O72      1.0000 0.14566  0.05122  0.46080  Biso   1.000  O
  O73      1.0000 0.98617  0.97922  0.54702  Biso   1.000  O
  O74      1.0000 0.98942  0.97887  0.37914  Biso   1.000  O
  O75      1.0000 0.98785  0.02847  0.46301  Biso   1.000  O
  O76      1.0000 0.93229  0.08089  0.51767  Biso   1.000  O
  O77      1.0000 0.04374  0.08055  0.40831  Biso   1.000  O
  O78      1.0000 0.99064  0.99775  0.32284  Biso   1.000  O
  O79      1.0000 0.98503  0.99835  0.60322  Biso   1.000  O
  O80      1.0000 0.12628  0.99498  0.45949  Biso   1.000  O
  O81      1.0000 0.84919  0.99538  0.46631  Biso   1.000  O
  O82      1.0000 0.06924  0.05497  0.54353  Biso   1.000  O
  O83      1.0000 0.04368  0.08094  0.51718  Biso   1.000  O
  O84      1.0000 0.90666  0.05498  0.38234  Biso   1.000  O
  O85      1.0000 0.93229  0.08092  0.40867  Biso   1.000  O
  O86      1.0000 0.99063  0.21720  0.61911  Biso   1.000  O
  O87      1.0000 0.98577  0.21672  0.30664  Biso   1.000  O
  O88      1.0000 0.14616  0.13752  0.54692  Biso   1.000  O
  O89      1.0000 0.83049  0.13440  0.54745  Biso   1.000  O
  O90      1.0000 0.83015  0.13786  0.37867  Biso   1.000  O
  O91      1.0000 0.14577  0.13393  0.37845  Biso   1.000  O
  O92      1.0000 0.07006  0.29300  0.46496  Biso   1.000  O
  O93      1.0000 0.90658  0.29307  0.46050  Biso   1.000  O
  O94      1.0000 0.14599  0.22038  0.46450  Biso   1.000  O
  O95      1.0000 0.83049  0.22060  0.46111  Biso   1.000  O
  O96      1.0000 0.06989  0.13816  0.61888  Biso   1.000  O
  O97      1.0000 0.06922  0.13330  0.30678  Biso   1.000  O
  O98      1.0000 0.90654  0.13806  0.30684  Biso   1.000  O
  O99      1.0000 0.90711  0.13394  0.61907  Biso   1.000  O
  O100     1.0000 0.99009  0.29292  0.54686  Biso   1.000  O
  O101     1.0000 0.98646  0.29263  0.37873  Biso   1.000  O
  O102     1.0000 0.98836  0.13609  0.56846  Biso   1.000  O
  O103     1.0000 0.98792  0.13572  0.35734  Biso   1.000  O
  O104     1.0000 0.09735  0.13584  0.46277  Biso   1.000  O
  O105     1.0000 0.87885  0.13607  0.46301  Biso   1.000  O
  O106     1.0000 0.98828  0.24341  0.46283  Biso   1.000  O
  O107     1.0000 0.93232  0.19116  0.40831  Biso   1.000  O
  O108     1.0000 0.04416  0.19124  0.51744  Biso   1.000  O
  O109     1.0000 0.99146  0.27393  0.60315  Biso   1.000  O
  O110     1.0000 0.98499  0.27346  0.32253  Biso   1.000  O
  O111     1.0000 0.12677  0.13882  0.60306  Biso   1.000  O
  O112     1.0000 0.85020  0.13312  0.60349  Biso   1.000  O
  O113     1.0000 0.84966  0.13903  0.32254  Biso   1.000  O
  O114     1.0000 0.12611  0.13251  0.32242  Biso   1.000  O
  O115     1.0000 0.12680  0.27671  0.46580  Biso   1.000  O
  O116     1.0000 0.84983  0.27682  0.45968  Biso   1.000  O
  O117     1.0000 0.06920  0.21666  0.38201  Biso   1.000  O
  O118     1.0000 0.04365  0.19076  0.40844  Biso   1.000  O
  O119     1.0000 0.90723  0.21705  0.54364  Biso   1.000  O
  O120     1.0000 0.93271  0.19103  0.51724  Biso   1.000  O
  O121     1.0000 0.99240  0.40054  0.75521  Biso   1.000  O
  O122     1.0000 0.98398  0.42231  0.69560  Biso   1.000  O
  O123     1.0000 0.98450  0.38192  0.64561  Biso   1.000  O
  O124     1.0000 0.99323  0.31899  0.65449  Biso   1.000  O
  O125     1.0000 0.00238  0.29811  0.71458  Biso   1.000  O
  O126     1.0000 0.00194  0.33825  0.76402  Biso   1.000  O
  O127     1.0000 0.99086  0.44076  0.80803  Biso   1.000  O
  O128     1.0000 0.98984  0.47181  0.85393  Biso   1.000  O
  O129     1.0000 0.97660  0.47038  0.68775  Biso   1.000  O
  O130     1.0000 0.97728  0.39981  0.60029  Biso   1.000  O
  O131     1.0000 0.00971  0.25029  0.72383  Biso   1.000  O
  O132     1.0000 0.00872  0.32041  0.80947  Biso   1.000  O
  O133     1.0000 0.98413  0.39953  0.17043  Biso   1.000  O
  O134     1.0000 0.97381  0.33738  0.16176  Biso   1.000  O
  O135     1.0000 0.97329  0.29739  0.21125  Biso   1.000  O
  O136     1.0000 0.98316  0.31835  0.27119  Biso   1.000  O
  O137     1.0000 0.99261  0.38117  0.27992  Biso   1.000  O
  O138     1.0000 0.99320  0.42140  0.22988  Biso   1.000  O
  O139     1.0000 0.98581  0.43958  0.11765  Biso   1.000  O
  O140     1.0000 0.98693  0.47072  0.07190  Biso   1.000  O
  O141     1.0000 0.96650  0.31954  0.11639  Biso   1.000  O
  O142     1.0000 0.96537  0.24962  0.20218  Biso   1.000  O
  O143     1.0000 0.00039  0.39906  0.32515  Biso   1.000  O
  O144     1.0000 0.00118  0.46941  0.23755  Biso   1.000  O
  O145     1.0000 0.99161  0.86997  0.17180  Biso   1.000  O
  O146     1.0000 0.98489  0.84854  0.23173  Biso   1.000  O
  O147     1.0000 0.98526  0.88937  0.28132  Biso   1.000  O
  O148     1.0000 0.99217  0.95244  0.27174  Biso   1.000  O
  O149     1.0000 0.99950  0.97303  0.21130  Biso   1.000  O
  O150     1.0000 0.99920  0.93242  0.16225  Biso   1.000  O
  O151     1.0000 0.99035  0.82919  0.11944  Biso   1.000  O
  O152     1.0000 0.98948  0.79774  0.07383  Biso   1.000  O
  O153     1.0000 0.97902  0.80035  0.24015  Biso   1.000  O
  O154     1.0000 0.97949  0.87169  0.32692  Biso   1.000  O
  O155     1.0000 0.00533  0.02095  0.20152  Biso   1.000  O
  O156     1.0000 0.00462  0.95000  0.11651  Biso   1.000  O
  O157     1.0000 0.98409  0.87185  0.75487  Biso   1.000  O
  O158     1.0000 0.99241  0.85008  0.69528  Biso   1.000  O
  O159     1.0000 0.99188  0.89049  0.64541  Biso   1.000  O
  O160     1.0000 0.98324  0.95339  0.65446  Biso   1.000  O
  O161     1.0000 0.97416  0.97427  0.71454  Biso   1.000  O
  O162     1.0000 0.97462  0.93410  0.76387  Biso   1.000  O
  O163     1.0000 0.98568  0.83159  0.80745  Biso   1.000  O
  O164     1.0000 0.98677  0.80031  0.85306  Biso   1.000  O
  O165     1.0000 0.99973  0.80201  0.68738  Biso   1.000  O
  O166     1.0000 0.99903  0.87266  0.60006  Biso   1.000  O
  O167     1.0000 0.96691  0.02210  0.72383  Biso   1.000  O
  O168     1.0000 0.96791  0.95185  0.80937  Biso   1.000  O
  O169     1.0000 0.25410  0.13964  0.75425  Biso   1.000  O
  O170     1.0000 0.27557  0.13219  0.69446  Biso   1.000  O
  O171     1.0000 0.23483  0.13261  0.64485  Biso   1.000  O
  O172     1.0000 0.17184  0.14031  0.65429  Biso   1.000  O
  O173     1.0000 0.15119  0.14835  0.71459  Biso   1.000  O
  O174     1.0000 0.19172  0.14800  0.76370  Biso   1.000  O
  O175     1.0000 0.29483  0.13831  0.80656  Biso   1.000  O
  O176     1.0000 0.32632  0.13739  0.85208  Biso   1.000  O
  O177     1.0000 0.32370  0.12570  0.68616  Biso   1.000  O
  O178     1.0000 0.25253  0.12623  0.59934  Biso   1.000  O
  O179     1.0000 0.10331  0.15478  0.72421  Biso   1.000  O
  O180     1.0000 0.17416  0.15397  0.80937  Biso   1.000  O
  O181     1.0000 0.72456  0.13231  0.75575  Biso   1.000  O
  O182     1.0000 0.78679  0.12244  0.76444  Biso   1.000  O
  O183     1.0000 0.82673  0.12197  0.71491  Biso   1.000  O
  O184     1.0000 0.80558  0.13142  0.65499  Biso   1.000  O
  O185     1.0000 0.74270  0.14050  0.64629  Biso   1.000  O
  O186     1.0000 0.70255  0.14105  0.69633  Biso   1.000  O
  O187     1.0000 0.68451  0.13387  0.80844  Biso   1.000  O
  O188     1.0000 0.65330  0.13491  0.85408  Biso   1.000  O
  O189     1.0000 0.80471  0.11543  0.80982  Biso   1.000  O
  O190     1.0000 0.87456  0.11438  0.72392  Biso   1.000  O
  O191     1.0000 0.72469  0.14799  0.60107  Biso   1.000  O
  O192     1.0000 0.65448  0.14869  0.68869  Biso   1.000  O
  O193     1.0000 0.72346  0.14003  0.17034  Biso   1.000  O
  O194     1.0000 0.70157  0.13179  0.22990  Biso   1.000  O
  O195     1.0000 0.74188  0.13225  0.27989  Biso   1.000  O
  O196     1.0000 0.80485  0.14074  0.27106  Biso   1.000  O
  O197     1.0000 0.82588  0.14965  0.21100  Biso   1.000  O
  O198     1.0000 0.78579  0.14927  0.16154  Biso   1.000  O
  O199     1.0000 0.68325  0.13859  0.11761  Biso   1.000  O
  O200     1.0000 0.65215  0.13761  0.07180  Biso   1.000  O
  O201     1.0000 0.65346  0.12462  0.23771  Biso   1.000  O
  O202     1.0000 0.72389  0.12518  0.32519  Biso   1.000  O
  O203     1.0000 0.87376  0.15675  0.20183  Biso   1.000  O
  O204     1.0000 0.80369  0.15588  0.11608  Biso   1.000  O
  O205     1.0000 0.25214  0.13171  0.17061  Biso   1.000  O
  O206     1.0000 0.27393  0.14075  0.23005  Biso   1.000  O
  O207     1.0000 0.23363  0.14017  0.27995  Biso   1.000  O
  O208     1.0000 0.17082  0.13076  0.27106  Biso   1.000  O
  O209     1.0000 0.14989  0.12100  0.21113  Biso   1.000  O
  O210     1.0000 0.18999  0.12150  0.16174  Biso   1.000  O
  O211     1.0000 0.29235  0.13337  0.11809  Biso   1.000  O
  O212     1.0000 0.32370  0.13451  0.07257  Biso   1.000  O
  O213     1.0000 0.32193  0.14867  0.23782  Biso   1.000  O
  O214     1.0000 0.25147  0.14791  0.32520  Biso   1.000  O
  O215     1.0000 0.10212  0.11315  0.20202  Biso   1.000  O
  O216     1.0000 0.17226  0.11426  0.11631  Biso   1.000  O
  O217     1.0000 0.25328  0.42843  0.46677  Biso   1.000  O
  O218     1.0000 0.27496  0.36899  0.45719  Biso   1.000  O
  O219     1.0000 0.23460  0.31905  0.45773  Biso   1.000  O
  O220     1.0000 0.17186  0.32790  0.46763  Biso   1.000  O
  O221     1.0000 0.15111  0.38783  0.47795  Biso   1.000  O
  O222     1.0000 0.19122  0.43720  0.47748  Biso   1.000  O
  O223     1.0000 0.29335  0.48117  0.46519  Biso   1.000  O
  O224     1.0000 0.32425  0.52706  0.46421  Biso   1.000  O
  O225     1.0000 0.32290  0.36126  0.44887  Biso   1.000  O
  O226     1.0000 0.25233  0.27383  0.44955  Biso   1.000  O
  O227     1.0000 0.10343  0.39699  0.48622  Biso   1.000  O
  O228     1.0000 0.17354  0.48258  0.48515  Biso   1.000  O
  O229     1.0000 0.25218  0.84318  0.45855  Biso   1.000  O
  O230     1.0000 0.19030  0.83462  0.44675  Biso   1.000  O
  O231     1.0000 0.15036  0.88408  0.44617  Biso   1.000  O
  O232     1.0000 0.17115  0.94380  0.45747  Biso   1.000  O
  O233     1.0000 0.23374  0.95244  0.46835  Biso   1.000  O
  O234     1.0000 0.27392  0.90243  0.46900  Biso   1.000  O
  O235     1.0000 0.29206  0.79046  0.46038  Biso   1.000  O
  O236     1.0000 0.32307  0.74474  0.46155  Biso   1.000  O
  O237     1.0000 0.17264  0.78936  0.43837  Biso   1.000  O
  O238     1.0000 0.10277  0.87516  0.43709  Biso   1.000  O
  O239     1.0000 0.25143  0.99752  0.47730  Biso   1.000  O
  O240     1.0000 0.32175  0.90993  0.47814  Biso   1.000  O
  O241     1.0000 0.72155  0.84466  0.46721  Biso   1.000  O
  O242     1.0000 0.78377  0.83515  0.47634  Biso   1.000  O
  O243     1.0000 0.82434  0.88416  0.47677  Biso   1.000  O
  O244     1.0000 0.80388  0.94442  0.46801  Biso   1.000  O
  O245     1.0000 0.74101  0.95396  0.45960  Biso   1.000  O
  O246     1.0000 0.70021  0.90442  0.45911  Biso   1.000  O
  O247     1.0000 0.68093  0.79237  0.46571  Biso   1.000  O
  O248     1.0000 0.64964  0.74676  0.46471  Biso   1.000  O
  O249     1.0000 0.80119  0.78949  0.48283  Biso   1.000  O
  O250     1.0000 0.87212  0.87446  0.48378  Biso   1.000  O
  O251     1.0000 0.72349  0.99946  0.45264  Biso   1.000  O
  O252     1.0000 0.65217  0.91271  0.45201  Biso   1.000  O
  O253     1.0000 0.72349  0.42818  0.45890  Biso   1.000  O
  O254     1.0000 0.70187  0.36880  0.46874  Biso   1.000  O
  O255     1.0000 0.74222  0.31896  0.46809  Biso   1.000  O
  O256     1.0000 0.80487  0.32791  0.45781  Biso   1.000  O
  O257     1.0000 0.82557  0.38778  0.44717  Biso   1.000  O
  O258     1.0000 0.78544  0.43707  0.44775  Biso   1.000  O
  O259     1.0000 0.68341  0.48071  0.46067  Biso   1.000  O
  O260     1.0000 0.65226  0.52631  0.46183  Biso   1.000  O
  O261     1.0000 0.65398  0.36107  0.47737  Biso   1.000  O
  O262     1.0000 0.72460  0.27375  0.47652  Biso   1.000  O
  O263     1.0000 0.87321  0.39693  0.43861  Biso   1.000  O
  O264     1.0000 0.80300  0.48246  0.43987  Biso   1.000  O
