data_image0
_cell_length_a       22.071
_cell_length_b       22.071
_cell_length_c       22.071
_cell_angle_alpha    90
_cell_angle_beta     90
_cell_angle_gamma    90

_symmetry_space_group_name_H-M    "P 1"
_symmetry_int_tables_number       1

loop_
  _symmetry_equiv_pos_as_xyz
  'x, y, z'

loop_
  _atom_site_label
  _atom_site_occupancy
  _atom_site_fract_x
  _atom_site_fract_y
  _atom_site_fract_z
  _atom_site_thermal_displace_type
  _atom_site_B_iso_or_equiv
  _atom_site_type_symbol
  C1       1.0000 0.49826  0.00048  0.33640  Biso   1.000  C
  C2       1.0000 0.44337  0.00434  0.36827  Biso   1.000  C
  C3       1.0000 0.44438  0.00585  0.43214  Biso   1.000  C
  C4       1.0000 0.49963  0.00089  0.46537  Biso   1.000  C
  C5       1.0000 0.55396  0.99572  0.43108  Biso   1.000  C
  C6       1.0000 0.55358  0.99681  0.36741  Biso   1.000  C
  C7       1.0000 0.50071  0.00090  0.53471  Biso   1.000  C
  C8       1.0000 0.55595  0.00593  0.56794  Biso   1.000  C
  C9       1.0000 0.55695  0.00445  0.63182  Biso   1.000  C
  C10      1.0000 0.50207  0.00056  0.66368  Biso   1.000  C
  C11      1.0000 0.44675  0.99682  0.63267  Biso   1.000  C
  C12      1.0000 0.44638  0.99569  0.56900  Biso   1.000  C
  H1       1.0000 0.49805  0.00029  0.28723  Biso   1.000  H
  H2       1.0000 0.40145  0.01133  0.45479  Biso   1.000  H
  H3       1.0000 0.59741  0.99034  0.45270  Biso   1.000  H
  H4       1.0000 0.59887  0.01145  0.54528  Biso   1.000  H
  H5       1.0000 0.50228  0.00040  0.71285  Biso   1.000  H
  H6       1.0000 0.40294  0.99025  0.54739  Biso   1.000  H
  C13      1.0000 0.33499  0.50032  0.00019  Biso   1.000  C
  C14      1.0000 0.36671  0.44528  0.00366  Biso   1.000  C
  C15      1.0000 0.43058  0.44605  0.00493  Biso   1.000  C
  C16      1.0000 0.46409  0.50115  0.00029  Biso   1.000  C
  C17      1.0000 0.42996  0.55574  0.99561  Biso   1.000  C
  C18      1.0000 0.36614  0.55569  0.99678  Biso   1.000  C
  C19      1.0000 0.53356  0.50170  0.00022  Biso   1.000  C
  C20      1.0000 0.56717  0.55676  0.00482  Biso   1.000  C
  C21      1.0000 0.63107  0.55737  0.00350  Biso   1.000  C
  C22      1.0000 0.66263  0.50227  0.99999  Biso   1.000  C
  C23      1.0000 0.63137  0.44705  0.99658  Biso   1.000  C
  C24      1.0000 0.56763  0.44708  0.99548  Biso   1.000  C
  H7       1.0000 0.28580  0.50007  0.00014  Biso   1.000  H
  H8       1.0000 0.45303  0.40298  0.00999  Biso   1.000  H
  H9       1.0000 0.45191  0.59908  0.99059  Biso   1.000  H
  H10      1.0000 0.54480  0.59988  0.00988  Biso   1.000  H
  H11      1.0000 0.71180  0.50223  0.99990  Biso   1.000  H
  H12      1.0000 0.54582  0.40369  0.99046  Biso   1.000  H
  C25      1.0000 0.00029  0.33393  0.50004  Biso   1.000  C
  C26      1.0000 0.00399  0.36539  0.44488  Biso   1.000  C
  C27      1.0000 0.00527  0.42919  0.44523  Biso   1.000  C
  C28      1.0000 0.00022  0.46294  0.50002  Biso   1.000  C
  C29      1.0000 0.99520  0.42920  0.55482  Biso   1.000  C
  C30      1.0000 0.99656  0.36541  0.55519  Biso   1.000  C
  C31      1.0000 0.00018  0.53228  0.50001  Biso   1.000  C
  C32      1.0000 0.00532  0.56607  0.55479  Biso   1.000  C
  C33      1.0000 0.00398  0.62982  0.55505  Biso   1.000  C
  C34      1.0000 0.00009  0.66123  0.50000  Biso   1.000  C
  C35      1.0000 0.99624  0.62981  0.44495  Biso   1.000  C
  C36      1.0000 0.99499  0.56605  0.44523  Biso   1.000  C
  H13      1.0000 0.00032  0.28474  0.50005  Biso   1.000  H
  H14      1.0000 0.01068  0.45144  0.40207  Biso   1.000  H
  H15      1.0000 0.98976  0.45145  0.59797  Biso   1.000  H
  H16      1.0000 0.01084  0.54405  0.59801  Biso   1.000  H
  H17      1.0000 0.00006  0.71037  0.49999  Biso   1.000  H
  H18      1.0000 0.98950  0.54402  0.40200  Biso   1.000  H
  O1       1.0000 0.84350  0.00275  0.91838  Biso   1.000  O
  O2       1.0000 0.15686  0.99763  0.91910  Biso   1.000  O
  O3       1.0000 0.99798  0.08141  0.84334  Biso   1.000  O
  O4       1.0000 0.00258  0.91891  0.84340  Biso   1.000  O
  O5       1.0000 0.00223  0.84399  0.91618  Biso   1.000  O
  O6       1.0000 0.99817  0.15648  0.91598  Biso   1.000  O
  O7       1.0000 0.08421  0.99794  0.84401  Biso   1.000  O
  O8       1.0000 0.91637  0.00242  0.84356  Biso   1.000  O
  Zr1      1.0000 0.00023  0.00023  0.89296  Biso   1.000  Zr
  O9       1.0000 0.05509  0.94532  0.94523  Biso   1.000  O
  O10      1.0000 0.94531  0.05531  0.94498  Biso   1.000  O
  C37      1.0000 0.86005  0.00389  0.86201  Biso   1.000  C
  C38      1.0000 0.14040  0.99630  0.86274  Biso   1.000  C
  C39      1.0000 0.99669  0.13780  0.85974  Biso   1.000  C
  C40      1.0000 0.00372  0.86254  0.85994  Biso   1.000  C
  H19      1.0000 0.08097  0.08084  0.91947  Biso   1.000  H
  O11      1.0000 0.05508  0.05500  0.94533  Biso   1.000  O
  H20      1.0000 0.91944  0.91966  0.91916  Biso   1.000  H
  O12      1.0000 0.94529  0.94548  0.94509  Biso   1.000  O
  O13      1.0000 0.15684  0.00239  0.08164  Biso   1.000  O
  O14      1.0000 0.84347  0.99785  0.08095  Biso   1.000  O
  O15      1.0000 0.08155  0.15705  0.00229  Biso   1.000  O
  O16      1.0000 0.08117  0.84351  0.99771  Biso   1.000  O
  O17      1.0000 0.91854  0.84362  0.00206  Biso   1.000  O
  O18      1.0000 0.91907  0.15705  0.99775  Biso   1.000  O
  O19      1.0000 0.00246  0.08134  0.15674  Biso   1.000  O
  O20      1.0000 0.99763  0.91886  0.15661  Biso   1.000  O
  O21      1.0000 0.00243  0.15644  0.08412  Biso   1.000  O
  O22      1.0000 0.99769  0.84397  0.08380  Biso   1.000  O
  O23      1.0000 0.15654  0.08432  0.00229  Biso   1.000  O
  O24      1.0000 0.84399  0.08441  0.99774  Biso   1.000  O
  O25      1.0000 0.84367  0.91644  0.00174  Biso   1.000  O
  O26      1.0000 0.15632  0.91610  0.99815  Biso   1.000  O
  O27      1.0000 0.08397  0.00219  0.15646  Biso   1.000  O
  O28      1.0000 0.91611  0.99802  0.15604  Biso   1.000  O
  Zr2      1.0000 0.10732  0.00022  0.00027  Biso   1.000  Zr
  Zr3      1.0000 0.89302  0.00036  0.99977  Biso   1.000  Zr
  Zr4      1.0000 0.00029  0.10739  0.00004  Biso   1.000  Zr
  Zr5      1.0000 0.99996  0.89317  0.00000  Biso   1.000  Zr
  Zr6      1.0000 0.00009  0.00018  0.10708  Biso   1.000  Zr
  O29      1.0000 0.94503  0.94536  0.05485  Biso   1.000  O
  O30      1.0000 0.05515  0.05522  0.05511  Biso   1.000  O
  C41      1.0000 0.14029  0.00353  0.13802  Biso   1.000  C
  C42      1.0000 0.85993  0.99648  0.13731  Biso   1.000  C
  C43      1.0000 0.13796  0.14064  0.00355  Biso   1.000  C
  C44      1.0000 0.13759  0.85986  0.99660  Biso   1.000  C
  C45      1.0000 0.86214  0.86012  0.00308  Biso   1.000  C
  C46      1.0000 0.86267  0.14065  0.99646  Biso   1.000  C
  C47      1.0000 0.00385  0.13774  0.14035  Biso   1.000  C
  C48      1.0000 0.99632  0.86249  0.14005  Biso   1.000  C
  H21      1.0000 0.91952  0.08091  0.08059  Biso   1.000  H
  O31      1.0000 0.94537  0.05505  0.05471  Biso   1.000  O
  H22      1.0000 0.08065  0.91947  0.08077  Biso   1.000  H
  O32      1.0000 0.05486  0.94536  0.05487  Biso   1.000  O
  C49      1.0000 0.29074  0.00768  0.26576  Biso   1.000  C
  C50      1.0000 0.23104  0.00070  0.28713  Biso   1.000  C
  C51      1.0000 0.18161  0.99998  0.24638  Biso   1.000  C
  C52      1.0000 0.19109  0.00597  0.18344  Biso   1.000  C
  C53      1.0000 0.25128  0.01354  0.16296  Biso   1.000  C
  C54      1.0000 0.30013  0.01435  0.20344  Biso   1.000  C
  C55      1.0000 0.34322  0.00701  0.30618  Biso   1.000  C
  C56      1.0000 0.38936  0.00612  0.33659  Biso   1.000  C
  H23      1.0000 0.22267  0.99542  0.33519  Biso   1.000  H
  H24      1.0000 0.13622  0.99410  0.26403  Biso   1.000  H
  H25      1.0000 0.26110  0.01869  0.11518  Biso   1.000  H
  H26      1.0000 0.34563  0.01982  0.18581  Biso   1.000  H
  C57      1.0000 0.70899  0.99205  0.26346  Biso   1.000  C
  C58      1.0000 0.70056  0.98075  0.20172  Biso   1.000  C
  C59      1.0000 0.74973  0.98138  0.16177  Biso   1.000  C
  C60      1.0000 0.80913  0.99342  0.18233  Biso   1.000  C
  C61      1.0000 0.81772  0.00369  0.24478  Biso   1.000  C
  C62      1.0000 0.76796  0.00319  0.28499  Biso   1.000  C
  C63      1.0000 0.65624  0.99332  0.30315  Biso   1.000  C
  C64      1.0000 0.61018  0.99459  0.33340  Biso   1.000  C
  H27      1.0000 0.65558  0.97194  0.18412  Biso   1.000  H
  H28      1.0000 0.74082  0.97265  0.11432  Biso   1.000  H
  H29      1.0000 0.86254  0.01311  0.26235  Biso   1.000  H
  H30      1.0000 0.77543  0.01205  0.33267  Biso   1.000  H
  C65      1.0000 0.70960  0.00807  0.73429  Biso   1.000  C
  C66      1.0000 0.70030  0.01544  0.79655  Biso   1.000  C
  C67      1.0000 0.74915  0.01467  0.83701  Biso   1.000  C
  C68      1.0000 0.80927  0.00644  0.81659  Biso   1.000  C
  C69      1.0000 0.81869  0.99981  0.75370  Biso   1.000  C
  C70      1.0000 0.76924  0.00048  0.71296  Biso   1.000  C
  C71      1.0000 0.65710  0.00729  0.69390  Biso   1.000  C
  C72      1.0000 0.61096  0.00631  0.66349  Biso   1.000  C
  H31      1.0000 0.65484  0.02140  0.81413  Biso   1.000  H
  H32      1.0000 0.73941  0.02035  0.88475  Biso   1.000  H
  H33      1.0000 0.86402  0.99340  0.73609  Biso   1.000  H
  H34      1.0000 0.77755  0.99465  0.66496  Biso   1.000  H
  C73      1.0000 0.29134  0.99192  0.73659  Biso   1.000  C
  C74      1.0000 0.29973  0.98040  0.79830  Biso   1.000  C
  C75      1.0000 0.25055  0.98100  0.83824  Biso   1.000  C
  C76      1.0000 0.19119  0.99322  0.81771  Biso   1.000  C
  C77      1.0000 0.18262  0.00370  0.75528  Biso   1.000  C
  C78      1.0000 0.23239  0.00323  0.71508  Biso   1.000  C
  C79      1.0000 0.34409  0.99325  0.69692  Biso   1.000  C
  C80      1.0000 0.39015  0.99455  0.66667  Biso   1.000  C
  H35      1.0000 0.34469  0.97146  0.81587  Biso   1.000  H
  H36      1.0000 0.25944  0.97211  0.88567  Biso   1.000  H
  H37      1.0000 0.13782  0.01327  0.73774  Biso   1.000  H
  H38      1.0000 0.22494  0.01227  0.66743  Biso   1.000  H
  C81      1.0000 0.26474  0.29208  0.00728  Biso   1.000  C
  C82      1.0000 0.20248  0.30084  0.01525  Biso   1.000  C
  C83      1.0000 0.16239  0.25166  0.01467  Biso   1.000  C
  C84      1.0000 0.18315  0.19170  0.00602  Biso   1.000  C
  C85      1.0000 0.24605  0.18281  0.99881  Biso   1.000  C
  C86      1.0000 0.28643  0.23259  0.99930  Biso   1.000  C
  C87      1.0000 0.30476  0.34493  0.00639  Biso   1.000  C
  C88      1.0000 0.33496  0.39124  0.00540  Biso   1.000  C
  H39      1.0000 0.18460  0.34613  0.02156  Biso   1.000  H
  H40      1.0000 0.11463  0.26105  0.02083  Biso   1.000  H
  H41      1.0000 0.26393  0.13763  0.99205  Biso   1.000  H
  H42      1.0000 0.33444  0.22466  0.99302  Biso   1.000  H
  C89      1.0000 0.26391  0.70843  0.99276  Biso   1.000  C
  C90      1.0000 0.28561  0.76769  0.00209  Biso   1.000  C
  C91      1.0000 0.24538  0.81752  0.00253  Biso   1.000  C
  C92      1.0000 0.18265  0.80884  0.99393  Biso   1.000  C
  C93      1.0000 0.16188  0.74912  0.98383  Biso   1.000  C
  C94      1.0000 0.20185  0.69988  0.98330  Biso   1.000  C
  C95      1.0000 0.30374  0.65557  0.99384  Biso   1.000  C
  C96      1.0000 0.33399  0.60938  0.99494  Biso   1.000  C
  H43      1.0000 0.33350  0.77537  0.00952  Biso   1.000  H
  H44      1.0000 0.26320  0.86254  0.01042  Biso   1.000  H
  H45      1.0000 0.11424  0.73998  0.97652  Biso   1.000  H
  H46      1.0000 0.18402  0.65473  0.97591  Biso   1.000  H
  C97      1.0000 0.73423  0.70967  0.00674  Biso   1.000  C
  C98      1.0000 0.79662  0.70017  0.01271  Biso   1.000  C
  C99      1.0000 0.83716  0.74899  0.01203  Biso   1.000  C
  C100     1.0000 0.81670  0.80929  0.00529  Biso   1.000  C
  C101     1.0000 0.75371  0.81888  0.99995  Biso   1.000  C
  C102     1.0000 0.71290  0.76948  0.00056  Biso   1.000  C
  C103     1.0000 0.69367  0.65726  0.00608  Biso   1.000  C
  C104     1.0000 0.66306  0.61123  0.00520  Biso   1.000  C
  H47      1.0000 0.81424  0.65460  0.01757  Biso   1.000  H
  H48      1.0000 0.88498  0.73907  0.01662  Biso   1.000  H
  H49      1.0000 0.73604  0.86434  0.99472  Biso   1.000  H
  H50      1.0000 0.66480  0.77797  0.99583  Biso   1.000  H
  C105     1.0000 0.73587  0.29159  0.99263  Biso   1.000  C
  C106     1.0000 0.71426  0.23215  0.00084  Biso   1.000  C
  C107     1.0000 0.75470  0.18250  0.00134  Biso   1.000  C
  C108     1.0000 0.81753  0.19157  0.99393  Biso   1.000  C
  C109     1.0000 0.83822  0.25150  0.98502  Biso   1.000  C
  C110     1.0000 0.79805  0.30055  0.98442  Biso   1.000  C
  C111     1.0000 0.69578  0.34422  0.99358  Biso   1.000  C
  C112     1.0000 0.66533  0.39025  0.99462  Biso   1.000  C
  H51      1.0000 0.66628  0.22416  0.00730  Biso   1.000  H
  H52      1.0000 0.73693  0.13731  0.00830  Biso   1.000  H
  H53      1.0000 0.88594  0.26093  0.97868  Biso   1.000  H
  H54      1.0000 0.81580  0.34587  0.97794  Biso   1.000  H
  C113     1.0000 0.00818  0.26385  0.29180  Biso   1.000  C
  C114     1.0000 0.01853  0.20190  0.30015  Biso   1.000  C
  C115     1.0000 0.01787  0.16202  0.25088  Biso   1.000  C
  C116     1.0000 0.00676  0.18276  0.19134  Biso   1.000  C
  C117     1.0000 0.99736  0.24539  0.18282  Biso   1.000  C
  C118     1.0000 0.99790  0.28555  0.23270  Biso   1.000  C
  C119     1.0000 0.00707  0.30351  0.34474  Biso   1.000  C
  C120     1.0000 0.00593  0.33356  0.39104  Biso   1.000  C
  H55      1.0000 0.02665  0.18410  0.34518  Biso   1.000  H
  H56      1.0000 0.02588  0.11445  0.25984  Biso   1.000  H
  H57      1.0000 0.98867  0.26316  0.13793  Biso   1.000  H
  H58      1.0000 0.98977  0.33335  0.22520  Biso   1.000  H
  C121     1.0000 0.99239  0.26391  0.70830  Biso   1.000  C
  C122     1.0000 0.98193  0.20199  0.69996  Biso   1.000  C
  C123     1.0000 0.98257  0.16211  0.74924  Biso   1.000  C
  C124     1.0000 0.99379  0.18283  0.80877  Biso   1.000  C
  C125     1.0000 0.00332  0.24544  0.81727  Biso   1.000  C
  C126     1.0000 0.00279  0.28560  0.76738  Biso   1.000  C
  C127     1.0000 0.99351  0.30356  0.65535  Biso   1.000  C
  C128     1.0000 0.99464  0.33359  0.60904  Biso   1.000  C
  H59      1.0000 0.97371  0.18419  0.65494  Biso   1.000  H
  H60      1.0000 0.97446  0.11456  0.74029  Biso   1.000  H
  H61      1.0000 0.01209  0.26320  0.86214  Biso   1.000  H
  H62      1.0000 0.01101  0.33339  0.77487  Biso   1.000  H
  C129     1.0000 0.00795  0.73483  0.70995  Biso   1.000  C
  C130     1.0000 0.01560  0.79701  0.70046  Biso   1.000  C
  C131     1.0000 0.01483  0.83754  0.74921  Biso   1.000  C
  C132     1.0000 0.00632  0.81718  0.80929  Biso   1.000  C
  C133     1.0000 0.99943  0.75437  0.81886  Biso   1.000  C
  C134     1.0000 0.00011  0.71358  0.76955  Biso   1.000  C
  C135     1.0000 0.00711  0.69437  0.65768  Biso   1.000  C
  C136     1.0000 0.00607  0.66371  0.61183  Biso   1.000  C
  H63      1.0000 0.02177  0.81446  0.65499  Biso   1.000  H
  H64      1.0000 0.02073  0.88525  0.73942  Biso   1.000  H
  H65      1.0000 0.99280  0.73687  0.86421  Biso   1.000  H
  H66      1.0000 0.99406  0.66560  0.77790  Biso   1.000  H
  C137     1.0000 0.99211  0.73479  0.29004  Biso   1.000  C
  C138     1.0000 0.00017  0.71355  0.23046  Biso   1.000  C
  C139     1.0000 0.00081  0.75434  0.18114  Biso   1.000  C
  C140     1.0000 0.99369  0.81712  0.19069  Biso   1.000  C
  C141     1.0000 0.98495  0.83746  0.25074  Biso   1.000  C
  C142     1.0000 0.98421  0.79694  0.29949  Biso   1.000  C
  C143     1.0000 0.99302  0.69434  0.34231  Biso   1.000  C
  C144     1.0000 0.99410  0.66368  0.38817  Biso   1.000  C
  H67      1.0000 0.00642  0.66560  0.22213  Biso   1.000  H
  H68      1.0000 0.00764  0.73686  0.13582  Biso   1.000  H
  H69      1.0000 0.97886  0.88515  0.26051  Biso   1.000  H
  H70      1.0000 0.97787  0.81437  0.34495  Biso   1.000  H
  C145     1.0000 0.00061  0.79904  0.21065  Biso   1.000  C
  C146     1.0000 0.00447  0.76717  0.26554  Biso   1.000  C
  C147     1.0000 0.00598  0.70330  0.26453  Biso   1.000  C
  C148     1.0000 0.00102  0.67007  0.20928  Biso   1.000  C
  C149     1.0000 0.99585  0.70437  0.15495  Biso   1.000  C
  C150     1.0000 0.99694  0.76803  0.15533  Biso   1.000  C
  C151     1.0000 0.00103  0.60073  0.20820  Biso   1.000  C
  C152     1.0000 0.00606  0.56750  0.15296  Biso   1.000  C
  C153     1.0000 0.00458  0.50362  0.15196  Biso   1.000  C
  C154     1.0000 0.00069  0.47176  0.20684  Biso   1.000  C
  C155     1.0000 0.99695  0.50277  0.26216  Biso   1.000  C
  C156     1.0000 0.99582  0.56644  0.26253  Biso   1.000  C
  H71      1.0000 0.00042  0.84821  0.21086  Biso   1.000  H
  H72      1.0000 0.01146  0.68065  0.30746  Biso   1.000  H
  H73      1.0000 0.99047  0.68274  0.11150  Biso   1.000  H
  H74      1.0000 0.01158  0.59016  0.11004  Biso   1.000  H
  H75      1.0000 0.00053  0.42259  0.20663  Biso   1.000  H
  H76      1.0000 0.99038  0.58805  0.30597  Biso   1.000  H
  C157     1.0000 0.50045  0.13525  0.37392  Biso   1.000  C
  C158     1.0000 0.44541  0.13178  0.34220  Biso   1.000  C
  C159     1.0000 0.44618  0.13051  0.27833  Biso   1.000  C
  C160     1.0000 0.50128  0.13515  0.24482  Biso   1.000  C
  C161     1.0000 0.55587  0.13983  0.27895  Biso   1.000  C
  C162     1.0000 0.55582  0.13866  0.34277  Biso   1.000  C
  C163     1.0000 0.50183  0.13522  0.17535  Biso   1.000  C
  C164     1.0000 0.55689  0.13063  0.14174  Biso   1.000  C
  C165     1.0000 0.55750  0.13194  0.07784  Biso   1.000  C
  C166     1.0000 0.50240  0.13545  0.04628  Biso   1.000  C
  C167     1.0000 0.44718  0.13886  0.07754  Biso   1.000  C
  C168     1.0000 0.44721  0.13996  0.14128  Biso   1.000  C
  H77      1.0000 0.50020  0.13530  0.42311  Biso   1.000  H
  H78      1.0000 0.40311  0.12545  0.25588  Biso   1.000  H
  H79      1.0000 0.59921  0.14485  0.25700  Biso   1.000  H
  H80      1.0000 0.60001  0.12556  0.16411  Biso   1.000  H
  H81      1.0000 0.50236  0.13554  0.99711  Biso   1.000  H
  H82      1.0000 0.40382  0.14498  0.16309  Biso   1.000  H
  C169     1.0000 0.33406  0.63540  0.70862  Biso   1.000  C
  C170     1.0000 0.36552  0.69056  0.70492  Biso   1.000  C
  C171     1.0000 0.42932  0.69021  0.70364  Biso   1.000  C
  C172     1.0000 0.46307  0.63543  0.70869  Biso   1.000  C
  C173     1.0000 0.42933  0.58062  0.71371  Biso   1.000  C
  C174     1.0000 0.36554  0.58025  0.71235  Biso   1.000  C
  C175     1.0000 0.53241  0.63544  0.70873  Biso   1.000  C
  C176     1.0000 0.56620  0.58065  0.70359  Biso   1.000  C
  C177     1.0000 0.62995  0.58039  0.70493  Biso   1.000  C
  C178     1.0000 0.66136  0.63545  0.70882  Biso   1.000  C
  C179     1.0000 0.62994  0.69049  0.71267  Biso   1.000  C
  C180     1.0000 0.56618  0.69021  0.71392  Biso   1.000  C
  H83      1.0000 0.28487  0.63539  0.70859  Biso   1.000  H
  H84      1.0000 0.45157  0.73337  0.69823  Biso   1.000  H
  H85      1.0000 0.45158  0.53747  0.71915  Biso   1.000  H
  H86      1.0000 0.54418  0.53743  0.69807  Biso   1.000  H
  H87      1.0000 0.71050  0.63546  0.70885  Biso   1.000  H
  H88      1.0000 0.54415  0.73344  0.71941  Biso   1.000  H
  O33      1.0000 0.00288  0.21706  0.86541  Biso   1.000  O
  O34      1.0000 0.99776  0.21635  0.55205  Biso   1.000  O
  O35      1.0000 0.08154  0.29210  0.71093  Biso   1.000  O
  O36      1.0000 0.91904  0.29205  0.70633  Biso   1.000  O
  O37      1.0000 0.84412  0.21926  0.70668  Biso   1.000  O
  O38      1.0000 0.15661  0.21946  0.71074  Biso   1.000  O
  O39      1.0000 0.99807  0.29144  0.62470  Biso   1.000  O
  O40      1.0000 0.00255  0.29188  0.79254  Biso   1.000  O
  Zr7      1.0000 0.00036  0.24248  0.70868  Biso   1.000  Zr
  O41      1.0000 0.94545  0.19021  0.65382  Biso   1.000  O
  O42      1.0000 0.05544  0.19046  0.76360  Biso   1.000  O
  C181     1.0000 0.00402  0.27343  0.84886  Biso   1.000  C
  C182     1.0000 0.99643  0.27271  0.56851  Biso   1.000  C
  C183     1.0000 0.13793  0.27570  0.71222  Biso   1.000  C
  C184     1.0000 0.86267  0.27550  0.70519  Biso   1.000  C
  H89      1.0000 0.08097  0.21597  0.62794  Biso   1.000  H
  O43      1.0000 0.05513  0.19011  0.65383  Biso   1.000  O
  H90      1.0000 0.91979  0.21628  0.78947  Biso   1.000  H
  O44      1.0000 0.94561  0.19035  0.76362  Biso   1.000  O
  O45      1.0000 0.00252  0.05380  0.55207  Biso   1.000  O
  O46      1.0000 0.99798  0.05449  0.86544  Biso   1.000  O
  O47      1.0000 0.15718  0.13315  0.62736  Biso   1.000  O
  O48      1.0000 0.84364  0.13774  0.62774  Biso   1.000  O
  O49      1.0000 0.84375  0.13338  0.79037  Biso   1.000  O
  O50      1.0000 0.15718  0.13769  0.78984  Biso   1.000  O
  O51      1.0000 0.08147  0.97870  0.70645  Biso   1.000  O
  O52      1.0000 0.91899  0.97883  0.71128  Biso   1.000  O
  O53      1.0000 0.15657  0.05132  0.70648  Biso   1.000  O
  O54      1.0000 0.84410  0.05164  0.71122  Biso   1.000  O
  O55      1.0000 0.08445  0.13315  0.55237  Biso   1.000  O
  O56      1.0000 0.08454  0.13770  0.86492  Biso   1.000  O
  O57      1.0000 0.91657  0.13370  0.86524  Biso   1.000  O
  O58      1.0000 0.91623  0.13729  0.55259  Biso   1.000  O
  O59      1.0000 0.00232  0.97898  0.62494  Biso   1.000  O
  O60      1.0000 0.99815  0.97940  0.79280  Biso   1.000  O
  Zr8      1.0000 0.00035  0.13517  0.60159  Biso   1.000  Zr
  Zr9      1.0000 0.00049  0.13567  0.81589  Biso   1.000  Zr
  Zr10     1.0000 0.10752  0.13540  0.70862  Biso   1.000  Zr
  Zr11     1.0000 0.89330  0.13544  0.70895  Biso   1.000  Zr
  Zr12     1.0000 0.00031  0.02836  0.70882  Biso   1.000  Zr
  O61      1.0000 0.94549  0.08059  0.76388  Biso   1.000  O
  O62      1.0000 0.05535  0.08033  0.65376  Biso   1.000  O
  C185     1.0000 0.00366  0.99742  0.56862  Biso   1.000  C
  C186     1.0000 0.99661  0.99813  0.84898  Biso   1.000  C
  C187     1.0000 0.14077  0.13189  0.57095  Biso   1.000  C
  C188     1.0000 0.85999  0.13885  0.57132  Biso   1.000  C
  C189     1.0000 0.86025  0.13237  0.84677  Biso   1.000  C
  C190     1.0000 0.14078  0.13898  0.84624  Biso   1.000  C
  C191     1.0000 0.13787  0.99509  0.70506  Biso   1.000  C
  C192     1.0000 0.86262  0.99540  0.71259  Biso   1.000  C
  H91      1.0000 0.08104  0.05485  0.78939  Biso   1.000  H
  O63      1.0000 0.05518  0.08073  0.76354  Biso   1.000  O
  H92      1.0000 0.91960  0.05468  0.62826  Biso   1.000  H
  O64      1.0000 0.94549  0.08058  0.65405  Biso   1.000  O
  C193     1.0000 0.00781  0.86968  0.41817  Biso   1.000  C
  C194     1.0000 0.00083  0.84831  0.47787  Biso   1.000  C
  C195     1.0000 0.00011  0.88906  0.52730  Biso   1.000  C
  C196     1.0000 0.00610  0.95200  0.51782  Biso   1.000  C
  C197     1.0000 0.01367  0.97248  0.45763  Biso   1.000  C
  C198     1.0000 0.01448  0.93200  0.40878  Biso   1.000  C
  C199     1.0000 0.00714  0.82926  0.36569  Biso   1.000  C
  C200     1.0000 0.00625  0.79885  0.31955  Biso   1.000  C
  H93      1.0000 0.99555  0.80025  0.48624  Biso   1.000  H
  H94      1.0000 0.99423  0.87142  0.57269  Biso   1.000  H
  H95      1.0000 0.01882  0.02026  0.44781  Biso   1.000  H
  H96      1.0000 0.01995  0.94963  0.36328  Biso   1.000  H
  C201     1.0000 0.99218  0.87198  0.99992  Biso   1.000  C
  C202     1.0000 0.98088  0.93372  0.00835  Biso   1.000  C
  C203     1.0000 0.98151  0.97367  0.95918  Biso   1.000  C
  C204     1.0000 0.99355  0.95311  0.89978  Biso   1.000  C
  C205     1.0000 0.00382  0.89066  0.89119  Biso   1.000  C
  C206     1.0000 0.00332  0.85045  0.94095  Biso   1.000  C
  C207     1.0000 0.99345  0.83229  0.05267  Biso   1.000  C
  C208     1.0000 0.99472  0.80204  0.09873  Biso   1.000  C
  H97      1.0000 0.97207  0.95132  0.05333  Biso   1.000  H
  H98      1.0000 0.97278  0.02112  0.96809  Biso   1.000  H
  H99      1.0000 0.01324  0.87309  0.84637  Biso   1.000  H
  H100     1.0000 0.01218  0.80277  0.93348  Biso   1.000  H
  C209     1.0000 0.00820  0.40115  0.99931  Biso   1.000  C
  C210     1.0000 0.01557  0.33889  0.00861  Biso   1.000  C
  C211     1.0000 0.01480  0.29843  0.95976  Biso   1.000  C
  C212     1.0000 0.00657  0.31885  0.89964  Biso   1.000  C
  C213     1.0000 0.99994  0.38174  0.89022  Biso   1.000  C
  C214     1.0000 0.00061  0.42248  0.93967  Biso   1.000  C
  C215     1.0000 0.00742  0.44154  0.05181  Biso   1.000  C
  C216     1.0000 0.00644  0.47195  0.09795  Biso   1.000  C
  H101     1.0000 0.02153  0.32131  0.05407  Biso   1.000  H
  H102     1.0000 0.02048  0.25069  0.96950  Biso   1.000  H
  H103     1.0000 0.99353  0.39935  0.84489  Biso   1.000  H
  H104     1.0000 0.99478  0.47048  0.93136  Biso   1.000  H
  C217     1.0000 0.99205  0.39885  0.41757  Biso   1.000  C
  C218     1.0000 0.98053  0.33714  0.40918  Biso   1.000  C
  C219     1.0000 0.98113  0.29721  0.45836  Biso   1.000  C
  C220     1.0000 0.99335  0.31773  0.51772  Biso   1.000  C
  C221     1.0000 0.00383  0.38016  0.52629  Biso   1.000  C
  C222     1.0000 0.00336  0.42036  0.47652  Biso   1.000  C
  C223     1.0000 0.99338  0.43852  0.36482  Biso   1.000  C
  C224     1.0000 0.99468  0.46877  0.31876  Biso   1.000  C
  H105     1.0000 0.97159  0.31957  0.36422  Biso   1.000  H
  H106     1.0000 0.97224  0.24977  0.44947  Biso   1.000  H
  H107     1.0000 0.01340  0.39770  0.57109  Biso   1.000  H
  H108     1.0000 0.01240  0.46801  0.48397  Biso   1.000  H
  C225     1.0000 0.29221  0.12816  0.44417  Biso   1.000  C
  C226     1.0000 0.30097  0.12019  0.50643  Biso   1.000  C
  C227     1.0000 0.25179  0.12077  0.54652  Biso   1.000  C
  C228     1.0000 0.19183  0.12942  0.52576  Biso   1.000  C
  C229     1.0000 0.18294  0.13663  0.46286  Biso   1.000  C
  C230     1.0000 0.23272  0.13614  0.42248  Biso   1.000  C
  C231     1.0000 0.34506  0.12905  0.40415  Biso   1.000  C
  C232     1.0000 0.39137  0.13004  0.37395  Biso   1.000  C
  H109     1.0000 0.34626  0.11388  0.52431  Biso   1.000  H
  H110     1.0000 0.26118  0.11461  0.59428  Biso   1.000  H
  H111     1.0000 0.13776  0.14339  0.44498  Biso   1.000  H
  H112     1.0000 0.22479  0.14243  0.37447  Biso   1.000  H
  C233     1.0000 0.70856  0.14268  0.44500  Biso   1.000  C
  C234     1.0000 0.76782  0.13336  0.42330  Biso   1.000  C
  C235     1.0000 0.81765  0.13292  0.46353  Biso   1.000  C
  C236     1.0000 0.80897  0.14151  0.52626  Biso   1.000  C
  C237     1.0000 0.74925  0.15161  0.54703  Biso   1.000  C
  C238     1.0000 0.70001  0.15215  0.50706  Biso   1.000  C
  C239     1.0000 0.65570  0.14160  0.40517  Biso   1.000  C
  C240     1.0000 0.60951  0.14050  0.37492  Biso   1.000  C
  H113     1.0000 0.77550  0.12593  0.37541  Biso   1.000  H
  H114     1.0000 0.86267  0.12502  0.44571  Biso   1.000  H
  H115     1.0000 0.74011  0.15892  0.59467  Biso   1.000  H
  H116     1.0000 0.65486  0.15953  0.52489  Biso   1.000  H
  C241     1.0000 0.70980  0.12870  0.97468  Biso   1.000  C
  C242     1.0000 0.70030  0.12273  0.91229  Biso   1.000  C
  C243     1.0000 0.74912  0.12342  0.87175  Biso   1.000  C
  C244     1.0000 0.80942  0.13015  0.89221  Biso   1.000  C
  C245     1.0000 0.81901  0.13549  0.95520  Biso   1.000  C
  C246     1.0000 0.76961  0.13488  0.99601  Biso   1.000  C
  C247     1.0000 0.65739  0.12936  0.01524  Biso   1.000  C
  C248     1.0000 0.61136  0.13024  0.04585  Biso   1.000  C
  H117     1.0000 0.65473  0.11787  0.89467  Biso   1.000  H
  H118     1.0000 0.73920  0.11882  0.82393  Biso   1.000  H
  H119     1.0000 0.86447  0.14072  0.97287  Biso   1.000  H
  H120     1.0000 0.77810  0.13961  0.04411  Biso   1.000  H
  C249     1.0000 0.29172  0.14281  0.97304  Biso   1.000  C
  C250     1.0000 0.23228  0.13460  0.99465  Biso   1.000  C
  C251     1.0000 0.18263  0.13410  0.95421  Biso   1.000  C
  C252     1.0000 0.19170  0.14151  0.89138  Biso   1.000  C
  C253     1.0000 0.25163  0.15042  0.87069  Biso   1.000  C
  C254     1.0000 0.30068  0.15102  0.91086  Biso   1.000  C
  C255     1.0000 0.34435  0.14186  0.01313  Biso   1.000  C
  C256     1.0000 0.39038  0.14083  0.04358  Biso   1.000  C
  H121     1.0000 0.22429  0.12814  0.04263  Biso   1.000  H
  H122     1.0000 0.13744  0.12714  0.97198  Biso   1.000  H
  H123     1.0000 0.26106  0.15676  0.82297  Biso   1.000  H
  H124     1.0000 0.34600  0.15750  0.89311  Biso   1.000  H
  C257     1.0000 0.26398  0.84364  0.70073  Biso   1.000  C
  C258     1.0000 0.20203  0.83529  0.69038  Biso   1.000  C
  C259     1.0000 0.16215  0.88456  0.69104  Biso   1.000  C
  C260     1.0000 0.18289  0.94410  0.70215  Biso   1.000  C
  C261     1.0000 0.24552  0.95262  0.71155  Biso   1.000  C
  C262     1.0000 0.28568  0.90274  0.71101  Biso   1.000  C
  C263     1.0000 0.30364  0.79070  0.70184  Biso   1.000  C
  C264     1.0000 0.33369  0.74440  0.70298  Biso   1.000  C
  H125     1.0000 0.18423  0.79026  0.68226  Biso   1.000  H
  H126     1.0000 0.11458  0.87560  0.68303  Biso   1.000  H
  H127     1.0000 0.26329  0.99751  0.72024  Biso   1.000  H
  H128     1.0000 0.33348  0.91024  0.71914  Biso   1.000  H
  C265     1.0000 0.26404  0.42714  0.71652  Biso   1.000  C
  C266     1.0000 0.20212  0.43548  0.72698  Biso   1.000  C
  C267     1.0000 0.16224  0.38620  0.72634  Biso   1.000  C
  C268     1.0000 0.18296  0.32667  0.71512  Biso   1.000  C
  C269     1.0000 0.24557  0.31817  0.70559  Biso   1.000  C
  C270     1.0000 0.28573  0.36806  0.70612  Biso   1.000  C
  C271     1.0000 0.30369  0.48009  0.71540  Biso   1.000  C
  C272     1.0000 0.33372  0.52640  0.71427  Biso   1.000  C
  H129     1.0000 0.18432  0.48050  0.73520  Biso   1.000  H
  H130     1.0000 0.11469  0.39515  0.73445  Biso   1.000  H
  H131     1.0000 0.26333  0.27330  0.69682  Biso   1.000  H
  H132     1.0000 0.33352  0.36057  0.69790  Biso   1.000  H
  C273     1.0000 0.73496  0.42549  0.70096  Biso   1.000  C
  C274     1.0000 0.79714  0.43499  0.69331  Biso   1.000  C
  C275     1.0000 0.83767  0.38624  0.69408  Biso   1.000  C
  C276     1.0000 0.81731  0.32616  0.70259  Biso   1.000  C
  C277     1.0000 0.75450  0.31658  0.70948  Biso   1.000  C
  C278     1.0000 0.71371  0.36589  0.70880  Biso   1.000  C
  C279     1.0000 0.69450  0.47777  0.70180  Biso   1.000  C
  C280     1.0000 0.66384  0.52361  0.70284  Biso   1.000  C
  H133     1.0000 0.81459  0.48045  0.68714  Biso   1.000  H
  H134     1.0000 0.88538  0.39603  0.68818  Biso   1.000  H
  H135     1.0000 0.73700  0.27123  0.71611  Biso   1.000  H
  H136     1.0000 0.66573  0.35754  0.71485  Biso   1.000  H
  C281     1.0000 0.73492  0.84540  0.71680  Biso   1.000  C
  C282     1.0000 0.71368  0.90499  0.70874  Biso   1.000  C
  C283     1.0000 0.75447  0.95431  0.70810  Biso   1.000  C
  C284     1.0000 0.81725  0.94475  0.71522  Biso   1.000  C
  C285     1.0000 0.83759  0.88470  0.72396  Biso   1.000  C
  C286     1.0000 0.79707  0.83595  0.72470  Biso   1.000  C
  C287     1.0000 0.69447  0.79313  0.71589  Biso   1.000  C
  C288     1.0000 0.66381  0.74727  0.71481  Biso   1.000  C
  H137     1.0000 0.66573  0.91332  0.70249  Biso   1.000  H
  H138     1.0000 0.73699  0.99963  0.70127  Biso   1.000  H
  H139     1.0000 0.88528  0.87493  0.73005  Biso   1.000  H
  H140     1.0000 0.81450  0.79049  0.73104  Biso   1.000  H
