data_image0
_cell_length_a       18.2486
_cell_length_b       18.2486
_cell_length_c       18.2486
_cell_angle_alpha    60
_cell_angle_beta     60
_cell_angle_gamma    60

_symmetry_space_group_name_H-M    "P 1"
_symmetry_int_tables_number       1

loop_
  _symmetry_equiv_pos_as_xyz
  'x, y, z'

loop_
  _atom_site_label
  _atom_site_occupancy
  _atom_site_fract_x
  _atom_site_fract_y
  _atom_site_fract_z
  _atom_site_thermal_displace_type
  _atom_site_B_iso_or_equiv
  _atom_site_type_symbol
  Zn1      1.0000 0.11962  0.29346  0.29346  Biso   1.000  Zn
  Zn2      1.0000 0.70654  0.88038  0.70654  Biso   1.000  Zn
  Zn3      1.0000 0.29346  0.29346  0.11962  Biso   1.000  Zn
  Zn4      1.0000 0.29346  0.29346  0.29346  Biso   1.000  Zn
  Zn5      1.0000 0.88038  0.70654  0.70654  Biso   1.000  Zn
  Zn6      1.0000 0.29346  0.11962  0.29346  Biso   1.000  Zn
  Zn7      1.0000 0.70654  0.70654  0.88038  Biso   1.000  Zn
  Zn8      1.0000 0.70654  0.70654  0.70654  Biso   1.000  Zn
  H1       1.0000 0.15060  0.45640  0.45640  Biso   1.000  H
  H2       1.0000 0.84940  0.54360  0.06340  Biso   1.000  H
  H3       1.0000 0.45640  0.93660  0.45640  Biso   1.000  H
  H4       1.0000 0.54360  0.84940  0.06340  Biso   1.000  H
  H5       1.0000 0.84940  0.54360  0.54360  Biso   1.000  H
  H6       1.0000 0.45640  0.15060  0.93660  Biso   1.000  H
  H7       1.0000 0.45640  0.93660  0.15060  Biso   1.000  H
  H8       1.0000 0.06340  0.54360  0.54360  Biso   1.000  H
  H9       1.0000 0.45640  0.15060  0.45640  Biso   1.000  H
  H10      1.0000 0.93660  0.45640  0.45640  Biso   1.000  H
  H11      1.0000 0.93660  0.15060  0.45640  Biso   1.000  H
  H12      1.0000 0.45640  0.45640  0.15060  Biso   1.000  H
  H13      1.0000 0.06340  0.84940  0.54360  Biso   1.000  H
  H14      1.0000 0.06340  0.54360  0.84940  Biso   1.000  H
  H15      1.0000 0.54360  0.06340  0.84940  Biso   1.000  H
  H16      1.0000 0.54360  0.84940  0.54360  Biso   1.000  H
  H17      1.0000 0.15060  0.93660  0.45640  Biso   1.000  H
  H18      1.0000 0.54360  0.06340  0.54360  Biso   1.000  H
  H19      1.0000 0.93660  0.45640  0.15060  Biso   1.000  H
  H20      1.0000 0.84940  0.06340  0.54360  Biso   1.000  H
  H21      1.0000 0.45640  0.45640  0.93660  Biso   1.000  H
  H22      1.0000 0.54360  0.54360  0.06340  Biso   1.000  H
  H23      1.0000 0.15060  0.45640  0.93660  Biso   1.000  H
  H24      1.0000 0.54360  0.54360  0.84940  Biso   1.000  H
  C1       1.0000 0.89030  0.60970  0.60970  Biso   1.000  C
  C2       1.0000 0.55390  0.55390  0.94610  Biso   1.000  C
  C3       1.0000 0.03650  0.91130  0.52610  Biso   1.000  C
  C4       1.0000 0.47390  0.96350  0.08870  Biso   1.000  C
  C5       1.0000 0.91130  0.52610  0.03650  Biso   1.000  C
  C6       1.0000 0.47390  0.47390  0.08870  Biso   1.000  C
  C7       1.0000 0.96350  0.08870  0.47390  Biso   1.000  C
  C8       1.0000 0.39030  0.10970  0.39030  Biso   1.000  C
  C9       1.0000 0.44610  0.05390  0.44610  Biso   1.000  C
  C10      1.0000 0.52610  0.52610  0.03650  Biso   1.000  C
  C11      1.0000 0.52610  0.91130  0.03650  Biso   1.000  C
  C12      1.0000 0.10970  0.10970  0.39030  Biso   1.000  C
  C13      1.0000 0.05390  0.44610  0.44610  Biso   1.000  C
  C14      1.0000 0.55390  0.94610  0.55390  Biso   1.000  C
  C15      1.0000 0.44610  0.05390  0.05390  Biso   1.000  C
  C16      1.0000 0.94610  0.55390  0.55390  Biso   1.000  C
  C17      1.0000 0.94610  0.55390  0.94610  Biso   1.000  C
  C18      1.0000 0.39030  0.39030  0.10970  Biso   1.000  C
  C19      1.0000 0.03650  0.52610  0.52610  Biso   1.000  C
  C20      1.0000 0.08870  0.47390  0.96350  Biso   1.000  C
  C21      1.0000 0.47390  0.96350  0.47390  Biso   1.000  C
  C22      1.0000 0.47390  0.47390  0.96350  Biso   1.000  C
  C23      1.0000 0.60970  0.89030  0.60970  Biso   1.000  C
  C24      1.0000 0.94610  0.94610  0.55390  Biso   1.000  C
  C25      1.0000 0.05390  0.05390  0.44610  Biso   1.000  C
  C26      1.0000 0.39030  0.10970  0.10970  Biso   1.000  C
  C27      1.0000 0.03650  0.52610  0.91130  Biso   1.000  C
  C28      1.0000 0.44610  0.44610  0.05390  Biso   1.000  C
  C29      1.0000 0.10970  0.39030  0.39030  Biso   1.000  C
  C30      1.0000 0.89030  0.89030  0.60970  Biso   1.000  C
  C31      1.0000 0.60970  0.89030  0.89030  Biso   1.000  C
  C32      1.0000 0.96350  0.47390  0.47390  Biso   1.000  C
  C33      1.0000 0.89030  0.60970  0.89030  Biso   1.000  C
  C34      1.0000 0.08870  0.47390  0.47390  Biso   1.000  C
  C35      1.0000 0.91130  0.52610  0.52610  Biso   1.000  C
  C36      1.0000 0.47390  0.08870  0.47390  Biso   1.000  C
  C37      1.0000 0.47390  0.08870  0.96350  Biso   1.000  C
  C38      1.0000 0.08870  0.96350  0.47390  Biso   1.000  C
  C39      1.0000 0.10970  0.39030  0.10970  Biso   1.000  C
  C40      1.0000 0.96350  0.47390  0.08870  Biso   1.000  C
  C41      1.0000 0.52610  0.52610  0.91130  Biso   1.000  C
  C42      1.0000 0.60970  0.60970  0.89030  Biso   1.000  C
  C43      1.0000 0.52610  0.91130  0.52610  Biso   1.000  C
  C44      1.0000 0.91130  0.03650  0.52610  Biso   1.000  C
  C45      1.0000 0.52610  0.03650  0.91130  Biso   1.000  C
  C46      1.0000 0.05390  0.44610  0.05390  Biso   1.000  C
  C47      1.0000 0.55390  0.94610  0.94610  Biso   1.000  C
  C48      1.0000 0.52610  0.03650  0.52610  Biso   1.000  C
  O1       1.0000 0.63380  0.80300  0.92940  Biso   1.000  O
  O2       1.0000 0.07060  0.19700  0.36620  Biso   1.000  O
  O3       1.0000 0.80300  0.63380  0.63380  Biso   1.000  O
  O4       1.0000 0.80300  0.92940  0.63380  Biso   1.000  O
  O5       1.0000 0.36620  0.07060  0.19700  Biso   1.000  O
  O6       1.0000 0.07060  0.36620  0.19700  Biso   1.000  O
  O7       1.0000 0.63380  0.92940  0.63380  Biso   1.000  O
  O8       1.0000 0.63380  0.80300  0.63380  Biso   1.000  O
  O9       1.0000 0.36620  0.36620  0.19700  Biso   1.000  O
  O10      1.0000 0.36620  0.07060  0.36620  Biso   1.000  O
  O11      1.0000 0.75000  0.75000  0.75000  Biso   1.000  O
  O12      1.0000 0.80300  0.63380  0.92940  Biso   1.000  O
  O13      1.0000 0.92940  0.80300  0.63380  Biso   1.000  O
  O14      1.0000 0.36620  0.19700  0.36620  Biso   1.000  O
  O15      1.0000 0.63380  0.63380  0.80300  Biso   1.000  O
  O16      1.0000 0.19700  0.36620  0.07060  Biso   1.000  O
  O17      1.0000 0.63380  0.63380  0.92940  Biso   1.000  O
  O18      1.0000 0.36620  0.36620  0.07060  Biso   1.000  O
  O19      1.0000 0.63380  0.92940  0.80300  Biso   1.000  O
  O20      1.0000 0.19700  0.07060  0.36620  Biso   1.000  O
  O21      1.0000 0.36620  0.19700  0.07060  Biso   1.000  O
  O22      1.0000 0.92940  0.63380  0.80300  Biso   1.000  O
  O23      1.0000 0.25000  0.25000  0.25000  Biso   1.000  O
  O24      1.0000 0.19700  0.36620  0.36620  Biso   1.000  O
  O25      1.0000 0.92940  0.63380  0.63380  Biso   1.000  O
  O26      1.0000 0.07060  0.36620  0.36620  Biso   1.000  O
  Zn9      1.0000 0.88869  0.75982  0.43250  Biso   1.000  Zn
  Zn10     1.0000 0.06260  0.75982  0.25860  Biso   1.000  Zn
  Zn11     1.0000 0.88869  0.75982  0.25860  Biso   1.000  Zn
  Zn12     1.0000 0.88869  0.93373  0.25860  Biso   1.000  Zn
  Zn13     1.0000 0.47103  0.34831  0.67319  Biso   1.000  Zn
  Zn14     1.0000 0.29713  0.34831  0.84709  Biso   1.000  Zn
  Zn15     1.0000 0.47103  0.17441  0.84709  Biso   1.000  Zn
  Zn16     1.0000 0.47103  0.34831  0.84709  Biso   1.000  Zn
  H25      1.0000 0.02739  0.59813  0.61719  Biso   1.000  H
  H26      1.0000 0.24421  0.59813  0.40037  Biso   1.000  H
  H27      1.0000 0.72393  0.90160  0.09691  Biso   1.000  H
  H28      1.0000 0.72393  0.11841  0.09691  Biso   1.000  H
  H29      1.0000 0.72393  0.11841  0.40037  Biso   1.000  H
  H30      1.0000 0.72393  0.90160  0.61719  Biso   1.000  H
  H31      1.0000 0.02739  0.59813  0.09691  Biso   1.000  H
  H32      1.0000 0.24421  0.59813  0.09691  Biso   1.000  H
  H33      1.0000 0.24421  0.90160  0.09691  Biso   1.000  H
  H34      1.0000 0.02739  0.11841  0.09691  Biso   1.000  H
  H35      1.0000 0.72393  0.59813  0.40037  Biso   1.000  H
  H36      1.0000 0.72393  0.59813  0.61719  Biso   1.000  H
  H37      1.0000 0.33233  0.51001  0.48850  Biso   1.000  H
  H38      1.0000 0.11552  0.51001  0.70532  Biso   1.000  H
  H39      1.0000 0.63580  0.98973  0.00878  Biso   1.000  H
  H40      1.0000 0.63580  0.20654  0.00878  Biso   1.000  H
  H41      1.0000 0.63580  0.51001  0.70532  Biso   1.000  H
  H42      1.0000 0.63580  0.51001  0.48850  Biso   1.000  H
  H43      1.0000 0.33233  0.98973  0.00878  Biso   1.000  H
  H44      1.0000 0.11552  0.20654  0.00878  Biso   1.000  H
  H45      1.0000 0.11552  0.51001  0.00878  Biso   1.000  H
  H46      1.0000 0.33233  0.51001  0.00878  Biso   1.000  H
  H47      1.0000 0.63580  0.98973  0.70532  Biso   1.000  H
  H48      1.0000 0.63580  0.20654  0.48850  Biso   1.000  H
  C49      1.0000 0.08950  0.58049  0.59037  Biso   1.000  C
  C50      1.0000 0.21739  0.58049  0.46248  Biso   1.000  C
  C51      1.0000 0.70628  0.96371  0.07926  Biso   1.000  C
  C52      1.0000 0.70628  0.09160  0.07926  Biso   1.000  C
  C53      1.0000 0.70628  0.09160  0.46248  Biso   1.000  C
  C54      1.0000 0.70628  0.96371  0.59037  Biso   1.000  C
  C55      1.0000 0.08950  0.58049  0.07926  Biso   1.000  C
  C56      1.0000 0.21739  0.58049  0.07926  Biso   1.000  C
  C57      1.0000 0.21739  0.96371  0.07926  Biso   1.000  C
  C58      1.0000 0.08950  0.09160  0.07926  Biso   1.000  C
  C59      1.0000 0.70628  0.58049  0.46248  Biso   1.000  C
  C60      1.0000 0.70628  0.58049  0.59037  Biso   1.000  C
  C61      1.0000 0.27023  0.52765  0.51532  Biso   1.000  C
  C62      1.0000 0.14233  0.52765  0.64321  Biso   1.000  C
  C63      1.0000 0.65344  0.01654  0.02643  Biso   1.000  C
  C64      1.0000 0.65344  0.14443  0.02643  Biso   1.000  C
  C65      1.0000 0.65344  0.52765  0.64321  Biso   1.000  C
  C66      1.0000 0.65344  0.52765  0.51532  Biso   1.000  C
  C67      1.0000 0.27023  0.01654  0.02643  Biso   1.000  C
  C68      1.0000 0.14233  0.14443  0.02643  Biso   1.000  C
  C69      1.0000 0.14233  0.52765  0.02643  Biso   1.000  C
  C70      1.0000 0.27023  0.52765  0.02643  Biso   1.000  C
  C71      1.0000 0.65344  0.01654  0.64321  Biso   1.000  C
  C72      1.0000 0.65344  0.14443  0.51532  Biso   1.000  C
  C73      1.0000 0.07024  0.66523  0.44015  Biso   1.000  C
  C74      1.0000 0.12816  0.60731  0.49807  Biso   1.000  C
  C75      1.0000 0.79410  0.94137  0.16400  Biso   1.000  C
  C76      1.0000 0.73617  0.99930  0.10608  Biso   1.000  C
  C77      1.0000 0.79410  0.94137  0.44015  Biso   1.000  C
  C78      1.0000 0.73617  0.99930  0.49807  Biso   1.000  C
  C79      1.0000 0.07024  0.66523  0.16400  Biso   1.000  C
  C80      1.0000 0.12816  0.60731  0.10608  Biso   1.000  C
  C81      1.0000 0.07024  0.94137  0.16400  Biso   1.000  C
  C82      1.0000 0.12816  0.99930  0.10608  Biso   1.000  C
  C83      1.0000 0.79410  0.66523  0.44015  Biso   1.000  C
  C84      1.0000 0.73617  0.60731  0.49807  Biso   1.000  C
  C85      1.0000 0.28948  0.44291  0.66554  Biso   1.000  C
  C86      1.0000 0.23156  0.50083  0.60762  Biso   1.000  C
  C87      1.0000 0.56563  0.16677  0.94169  Biso   1.000  C
  C88      1.0000 0.62355  0.10884  0.99961  Biso   1.000  C
  C89      1.0000 0.56563  0.44291  0.66554  Biso   1.000  C
  C90      1.0000 0.62355  0.50083  0.60762  Biso   1.000  C
  C91      1.0000 0.28948  0.16677  0.94169  Biso   1.000  C
  C92      1.0000 0.23156  0.10884  0.99961  Biso   1.000  C
  C93      1.0000 0.28948  0.44291  0.94169  Biso   1.000  C
  C94      1.0000 0.23156  0.50083  0.99961  Biso   1.000  C
  C95      1.0000 0.56563  0.16677  0.66554  Biso   1.000  C
  C96      1.0000 0.62355  0.10884  0.60762  Biso   1.000  C
  O27      1.0000 0.93217  0.80330  0.30208  Biso   1.000  O
  O28      1.0000 0.42755  0.30484  0.80362  Biso   1.000  O
  O29      1.0000 0.98769  0.68757  0.47802  Biso   1.000  O
  O30      1.0000 0.10812  0.68757  0.35760  Biso   1.000  O
  O31      1.0000 0.81644  0.85882  0.18634  Biso   1.000  O
  O32      1.0000 0.81644  0.97925  0.18634  Biso   1.000  O
  O33      1.0000 0.81644  0.97925  0.35760  Biso   1.000  O
  O34      1.0000 0.81644  0.85882  0.47802  Biso   1.000  O
  O35      1.0000 0.98769  0.68757  0.18634  Biso   1.000  O
  O36      1.0000 0.10812  0.68757  0.18634  Biso   1.000  O
  O37      1.0000 0.10812  0.85882  0.18634  Biso   1.000  O
  O38      1.0000 0.98769  0.97925  0.18634  Biso   1.000  O
  O39      1.0000 0.81644  0.68757  0.35760  Biso   1.000  O
  O40      1.0000 0.81644  0.68757  0.47802  Biso   1.000  O
  O41      1.0000 0.37203  0.42057  0.62767  Biso   1.000  O
  O42      1.0000 0.25161  0.42057  0.74810  Biso   1.000  O
  O43      1.0000 0.54329  0.12889  0.91935  Biso   1.000  O
  O44      1.0000 0.54329  0.24932  0.91935  Biso   1.000  O
  O45      1.0000 0.54329  0.42057  0.74810  Biso   1.000  O
  O46      1.0000 0.54329  0.42057  0.62767  Biso   1.000  O
  O47      1.0000 0.37203  0.12889  0.91935  Biso   1.000  O
  O48      1.0000 0.25161  0.24932  0.91935  Biso   1.000  O
  O49      1.0000 0.25161  0.42057  0.91935  Biso   1.000  O
  O50      1.0000 0.37203  0.42057  0.91935  Biso   1.000  O
  O51      1.0000 0.54329  0.12889  0.74810  Biso   1.000  O
  O52      1.0000 0.54329  0.24932  0.62767  Biso   1.000  O
