data_image0
_cell_length_a       18.2486
_cell_length_b       18.2486
_cell_length_c       18.2486
_cell_angle_alpha    60
_cell_angle_beta     60
_cell_angle_gamma    60

_symmetry_space_group_name_H-M    "P 1"
_symmetry_int_tables_number       1

loop_
  _symmetry_equiv_pos_as_xyz
  'x, y, z'

loop_
  _atom_site_label
  _atom_site_occupancy
  _atom_site_fract_x
  _atom_site_fract_y
  _atom_site_fract_z
  _atom_site_thermal_displace_type
  _atom_site_B_iso_or_equiv
  _atom_site_type_symbol
  C1       1.0000 0.11962  0.29346  0.29346  Biso   1.000  C
  C2       1.0000 0.70654  0.88038  0.70654  Biso   1.000  C
  C3       1.0000 0.29346  0.29346  0.11962  Biso   1.000  C
  C4       1.0000 0.29346  0.29346  0.29346  Biso   1.000  C
  C5       1.0000 0.88038  0.70654  0.70654  Biso   1.000  C
  C6       1.0000 0.29346  0.11962  0.29346  Biso   1.000  C
  C7       1.0000 0.70654  0.70654  0.88038  Biso   1.000  C
  C8       1.0000 0.70654  0.70654  0.70654  Biso   1.000  C
  C9       1.0000 0.15060  0.45640  0.45640  Biso   1.000  C
  C10      1.0000 0.84940  0.54360  0.06340  Biso   1.000  C
  C11      1.0000 0.45640  0.93660  0.45640  Biso   1.000  C
  C12      1.0000 0.54360  0.84940  0.06340  Biso   1.000  C
  C13      1.0000 0.84940  0.54360  0.54360  Biso   1.000  C
  C14      1.0000 0.45640  0.15060  0.93660  Biso   1.000  C
  C15      1.0000 0.45640  0.93660  0.15060  Biso   1.000  C
  C16      1.0000 0.06340  0.54360  0.54360  Biso   1.000  C
  C17      1.0000 0.45640  0.15060  0.45640  Biso   1.000  C
  C18      1.0000 0.93660  0.45640  0.45640  Biso   1.000  C
  C19      1.0000 0.93660  0.15060  0.45640  Biso   1.000  C
  C20      1.0000 0.45640  0.45640  0.15060  Biso   1.000  C
  C21      1.0000 0.06340  0.84940  0.54360  Biso   1.000  C
  C22      1.0000 0.06340  0.54360  0.84940  Biso   1.000  C
  C23      1.0000 0.54360  0.06340  0.84940  Biso   1.000  C
  C24      1.0000 0.54360  0.84940  0.54360  Biso   1.000  C
  C25      1.0000 0.15060  0.93660  0.45640  Biso   1.000  C
  C26      1.0000 0.54360  0.06340  0.54360  Biso   1.000  C
  C27      1.0000 0.93660  0.45640  0.15060  Biso   1.000  C
  C28      1.0000 0.84940  0.06340  0.54360  Biso   1.000  C
  C29      1.0000 0.45640  0.45640  0.93660  Biso   1.000  C
  C30      1.0000 0.54360  0.54360  0.06340  Biso   1.000  C
  C31      1.0000 0.15060  0.45640  0.93660  Biso   1.000  C
  C32      1.0000 0.54360  0.54360  0.84940  Biso   1.000  C
  C33      1.0000 0.89030  0.60970  0.60970  Biso   1.000  C
  C34      1.0000 0.55390  0.55390  0.94610  Biso   1.000  C
  C35      1.0000 0.03650  0.91130  0.52610  Biso   1.000  C
  C36      1.0000 0.47390  0.96350  0.08870  Biso   1.000  C
  C37      1.0000 0.91130  0.52610  0.03650  Biso   1.000  C
  C38      1.0000 0.47390  0.47390  0.08870  Biso   1.000  C
  C39      1.0000 0.96350  0.08870  0.47390  Biso   1.000  C
  C40      1.0000 0.39030  0.10970  0.39030  Biso   1.000  C
  C41      1.0000 0.44610  0.05390  0.44610  Biso   1.000  C
  C42      1.0000 0.52610  0.52610  0.03650  Biso   1.000  C
  C43      1.0000 0.52610  0.91130  0.03650  Biso   1.000  C
  C44      1.0000 0.10970  0.10970  0.39030  Biso   1.000  C
  C45      1.0000 0.05390  0.44610  0.44610  Biso   1.000  C
  C46      1.0000 0.55390  0.94610  0.55390  Biso   1.000  C
  C47      1.0000 0.44610  0.05390  0.05390  Biso   1.000  C
  C48      1.0000 0.94610  0.55390  0.55390  Biso   1.000  C
  C49      1.0000 0.94610  0.55390  0.94610  Biso   1.000  C
  C50      1.0000 0.39030  0.39030  0.10970  Biso   1.000  C
  C51      1.0000 0.03650  0.52610  0.52610  Biso   1.000  C
  C52      1.0000 0.08870  0.47390  0.96350  Biso   1.000  C
  C53      1.0000 0.47390  0.96350  0.47390  Biso   1.000  C
  C54      1.0000 0.47390  0.47390  0.96350  Biso   1.000  C
  C55      1.0000 0.60970  0.89030  0.60970  Biso   1.000  C
  C56      1.0000 0.94610  0.94610  0.55390  Biso   1.000  C
  C57      1.0000 0.05390  0.05390  0.44610  Biso   1.000  C
  C58      1.0000 0.39030  0.10970  0.10970  Biso   1.000  C
  C59      1.0000 0.03650  0.52610  0.91130  Biso   1.000  C
  C60      1.0000 0.44610  0.44610  0.05390  Biso   1.000  C
  C61      1.0000 0.10970  0.39030  0.39030  Biso   1.000  C
  C62      1.0000 0.89030  0.89030  0.60970  Biso   1.000  C
  C63      1.0000 0.60970  0.89030  0.89030  Biso   1.000  C
  C64      1.0000 0.96350  0.47390  0.47390  Biso   1.000  C
  C65      1.0000 0.89030  0.60970  0.89030  Biso   1.000  C
  C66      1.0000 0.08870  0.47390  0.47390  Biso   1.000  C
  C67      1.0000 0.91130  0.52610  0.52610  Biso   1.000  C
  C68      1.0000 0.47390  0.08870  0.47390  Biso   1.000  C
  C69      1.0000 0.47390  0.08870  0.96350  Biso   1.000  C
  C70      1.0000 0.08870  0.96350  0.47390  Biso   1.000  C
  C71      1.0000 0.10970  0.39030  0.10970  Biso   1.000  C
  C72      1.0000 0.96350  0.47390  0.08870  Biso   1.000  C
  C73      1.0000 0.52610  0.52610  0.91130  Biso   1.000  C
  C74      1.0000 0.60970  0.60970  0.89030  Biso   1.000  C
  C75      1.0000 0.52610  0.91130  0.52610  Biso   1.000  C
  C76      1.0000 0.91130  0.03650  0.52610  Biso   1.000  C
  C77      1.0000 0.52610  0.03650  0.91130  Biso   1.000  C
  C78      1.0000 0.05390  0.44610  0.05390  Biso   1.000  C
  C79      1.0000 0.55390  0.94610  0.94610  Biso   1.000  C
  C80      1.0000 0.52610  0.03650  0.52610  Biso   1.000  C
  C81      1.0000 0.63380  0.80300  0.92940  Biso   1.000  C
  C82      1.0000 0.07060  0.19700  0.36620  Biso   1.000  C
  C83      1.0000 0.80300  0.63380  0.63380  Biso   1.000  C
  C84      1.0000 0.80300  0.92940  0.63380  Biso   1.000  C
  C85      1.0000 0.36620  0.07060  0.19700  Biso   1.000  C
  C86      1.0000 0.07060  0.36620  0.19700  Biso   1.000  C
  C87      1.0000 0.63380  0.92940  0.63380  Biso   1.000  C
  C88      1.0000 0.63380  0.80300  0.63380  Biso   1.000  C
  C89      1.0000 0.36620  0.36620  0.19700  Biso   1.000  C
  C90      1.0000 0.36620  0.07060  0.36620  Biso   1.000  C
  C91      1.0000 0.75000  0.75000  0.75000  Biso   1.000  C
  C92      1.0000 0.80300  0.63380  0.92940  Biso   1.000  C
  C93      1.0000 0.92940  0.80300  0.63380  Biso   1.000  C
  C94      1.0000 0.36620  0.19700  0.36620  Biso   1.000  C
  C95      1.0000 0.63380  0.63380  0.80300  Biso   1.000  C
  C96      1.0000 0.19700  0.36620  0.07060  Biso   1.000  C
  C97      1.0000 0.63380  0.63380  0.92940  Biso   1.000  C
  C98      1.0000 0.36620  0.36620  0.07060  Biso   1.000  C
  C99      1.0000 0.63380  0.92940  0.80300  Biso   1.000  C
  C100     1.0000 0.19700  0.07060  0.36620  Biso   1.000  C
  C101     1.0000 0.36620  0.19700  0.07060  Biso   1.000  C
  C102     1.0000 0.92940  0.63380  0.80300  Biso   1.000  C
  C103     1.0000 0.25000  0.25000  0.25000  Biso   1.000  C
  C104     1.0000 0.19700  0.36620  0.36620  Biso   1.000  C
  C105     1.0000 0.92940  0.63380  0.63380  Biso   1.000  C
  C106     1.0000 0.07060  0.36620  0.36620  Biso   1.000  C
  O1       1.0000 0.94043  0.89298  0.94692  Biso   1.000  O
  O2       1.0000 0.51789  0.48602  0.54393  Biso   1.000  O
  O3       1.0000 0.93996  0.06839  0.94761  Biso   1.000  O
  O4       1.0000 0.94010  0.89323  0.12306  Biso   1.000  O
  O5       1.0000 0.11294  0.89367  0.94761  Biso   1.000  O
  O6       1.0000 0.34538  0.48534  0.54324  Biso   1.000  O
  O7       1.0000 0.51822  0.48577  0.36779  Biso   1.000  O
  O8       1.0000 0.51836  0.31062  0.54324  Biso   1.000  O
  O9       1.0000 0.77482  0.03105  0.31174  Biso   1.000  O
  O10      1.0000 0.29804  0.72728  0.08648  Biso   1.000  O
  O11      1.0000 0.07569  0.25671  0.78087  Biso   1.000  O
  O12      1.0000 0.38219  0.65229  0.17910  Biso   1.000  O
  O13      1.0000 0.68368  0.12306  0.40437  Biso   1.000  O
  O14      1.0000 0.16053  0.34663  0.70997  Biso   1.000  O
  O15      1.0000 0.68350  0.34795  0.17910  Biso   1.000  O
  O16      1.0000 0.16028  0.65173  0.40437  Biso   1.000  O
  O17      1.0000 0.38263  0.12230  0.70997  Biso   1.000  O
  O18      1.0000 0.07613  0.72672  0.31174  Biso   1.000  O
  O19      1.0000 0.77463  0.25594  0.08648  Biso   1.000  O
  O20      1.0000 0.29779  0.03238  0.78087  Biso   1.000  O
  O21      1.0000 0.78255  0.24991  0.78717  Biso   1.000  O
  O22      1.0000 0.77694  0.03339  0.77996  Biso   1.000  O
  O23      1.0000 0.78297  0.73301  0.30494  Biso   1.000  O
  O24      1.0000 0.77719  0.72637  0.08749  Biso   1.000  O
  O25      1.0000 0.29304  0.73430  0.78717  Biso   1.000  O
  O26      1.0000 0.08015  0.72713  0.77996  Biso   1.000  O
  O27      1.0000 0.16528  0.64471  0.70368  Biso   1.000  O
  O28      1.0000 0.37817  0.65187  0.71089  Biso   1.000  O
  O29      1.0000 0.67535  0.64600  0.18591  Biso   1.000  O
  O30      1.0000 0.68113  0.65264  0.40335  Biso   1.000  O
  O31      1.0000 0.67577  0.12909  0.70368  Biso   1.000  O
  O32      1.0000 0.68138  0.34562  0.71089  Biso   1.000  O
  O33      1.0000 0.75974  0.09342  0.28473  Biso   1.000  O
  O34      1.0000 0.27132  0.71205  0.14904  Biso   1.000  O
  O35      1.0000 0.13723  0.22984  0.76574  Biso   1.000  O
  O36      1.0000 0.32066  0.66729  0.20612  Biso   1.000  O
  O37      1.0000 0.69869  0.15012  0.34181  Biso   1.000  O
  O38      1.0000 0.18731  0.28429  0.72511  Biso   1.000  O
  O39      1.0000 0.69857  0.28558  0.20612  Biso   1.000  O
  O40      1.0000 0.18699  0.66695  0.34181  Biso   1.000  O
  O41      1.0000 0.32109  0.14917  0.72511  Biso   1.000  O
  O42      1.0000 0.13765  0.71172  0.28473  Biso   1.000  O
  O43      1.0000 0.75963  0.22889  0.14904  Biso   1.000  O
  O44      1.0000 0.27101  0.09472  0.76574  Biso   1.000  O
  O45      1.0000 0.84547  0.07933  0.85065  Biso   1.000  O
  O46      1.0000 0.78835  0.13399  0.79235  Biso   1.000  O
  O47      1.0000 0.76351  0.22640  0.76747  Biso   1.000  O
  O48      1.0000 0.76021  0.09563  0.76320  Biso   1.000  O
  O49      1.0000 0.84570  0.79665  0.13380  Biso   1.000  O
  O50      1.0000 0.78867  0.73846  0.18855  Biso   1.000  O
  O51      1.0000 0.76394  0.71344  0.28127  Biso   1.000  O
  O52      1.0000 0.76053  0.70952  0.14995  Biso   1.000  O
  O53      1.0000 0.12465  0.79735  0.85065  Biso   1.000  O
  O54      1.0000 0.17897  0.73944  0.79235  Biso   1.000  O
  O55      1.0000 0.27010  0.71472  0.76747  Biso   1.000  O
  O56      1.0000 0.14153  0.71049  0.76320  Biso   1.000  O
  O57      1.0000 0.33367  0.58165  0.64020  Biso   1.000  O
  O58      1.0000 0.27934  0.63956  0.69850  Biso   1.000  O
  O59      1.0000 0.18822  0.66428  0.72338  Biso   1.000  O
  O60      1.0000 0.31679  0.66852  0.72764  Biso   1.000  O
  O61      1.0000 0.61261  0.58236  0.35704  Biso   1.000  O
  O62      1.0000 0.66964  0.64055  0.30230  Biso   1.000  O
  O63      1.0000 0.69438  0.66556  0.20957  Biso   1.000  O
  O64      1.0000 0.69779  0.66948  0.34089  Biso   1.000  O
  O65      1.0000 0.61285  0.29967  0.64020  Biso   1.000  O
  O66      1.0000 0.66997  0.24501  0.69850  Biso   1.000  O
  O67      1.0000 0.69480  0.15261  0.72338  Biso   1.000  O
  O68      1.0000 0.69810  0.28337  0.72764  Biso   1.000  O
  O69      1.0000 0.84427  0.07792  0.13309  Biso   1.000  O
  O70      1.0000 0.79208  0.13144  0.18697  Biso   1.000  O
  O71      1.0000 0.12234  0.79705  0.13309  Biso   1.000  O
  O72      1.0000 0.17515  0.74453  0.18697  Biso   1.000  O
  O73      1.0000 0.12211  0.07862  0.85105  Biso   1.000  O
  O74      1.0000 0.17483  0.13241  0.79844  Biso   1.000  O
  O75      1.0000 0.33597  0.58195  0.35775  Biso   1.000  O
  O76      1.0000 0.28317  0.63448  0.30387  Biso   1.000  O
  O77      1.0000 0.61405  0.30109  0.35775  Biso   1.000  O
  O78      1.0000 0.66623  0.24756  0.30387  Biso   1.000  O
  O79      1.0000 0.33621  0.30038  0.63979  Biso   1.000  O
  O80      1.0000 0.28349  0.24660  0.69240  Biso   1.000  O
  O81      1.0000 0.86799  0.11677  0.04350  Biso   1.000  O
  O82      1.0000 0.03422  0.82082  0.17188  Biso   1.000  O
  O83      1.0000 0.16055  0.98935  0.87501  Biso   1.000  O
  O84      1.0000 0.29763  0.55787  0.44734  Biso   1.000  O
  O85      1.0000 0.59022  0.39040  0.31896  Biso   1.000  O
  O86      1.0000 0.42434  0.26182  0.61583  Biso   1.000  O
  O87      1.0000 0.59033  0.26224  0.44734  Biso   1.000  O
  O88      1.0000 0.42410  0.55819  0.31896  Biso   1.000  O
  O89      1.0000 0.29777  0.38966  0.61583  Biso   1.000  O
  O90      1.0000 0.16069  0.82114  0.04350  Biso   1.000  O
  O91      1.0000 0.86810  0.98861  0.17188  Biso   1.000  O
  O92      1.0000 0.03398  0.11719  0.87501  Biso   1.000  O
  O93      1.0000 0.98507  0.93883  0.99307  Biso   1.000  O
  O94      1.0000 0.47325  0.44018  0.49778  Biso   1.000  O
  O95      1.0000 0.86860  0.99037  0.87380  Biso   1.000  O
  O96      1.0000 0.86747  0.11781  0.87350  Biso   1.000  O
  O97      1.0000 0.86874  0.81993  0.04453  Biso   1.000  O
  O98      1.0000 0.86772  0.81931  0.17250  Biso   1.000  O
  O99      1.0000 0.03693  0.82035  0.87380  Biso   1.000  O
  O100     1.0000 0.16227  0.82005  0.87350  Biso   1.000  O
  O101     1.0000 0.42139  0.55865  0.61704  Biso   1.000  O
  O102     1.0000 0.29605  0.55896  0.61735  Biso   1.000  O
  O103     1.0000 0.58958  0.55908  0.44631  Biso   1.000  O
  O104     1.0000 0.59060  0.55970  0.31834  Biso   1.000  O
  O105     1.0000 0.58972  0.38863  0.61704  Biso   1.000  O
  O106     1.0000 0.59085  0.26120  0.61735  Biso   1.000  O
