data_image0
_cell_length_a       18.2486
_cell_length_b       18.2486
_cell_length_c       18.2486
_cell_angle_alpha    60
_cell_angle_beta     60
_cell_angle_gamma    60

_symmetry_space_group_name_H-M    "P 1"
_symmetry_int_tables_number       1

loop_
  _symmetry_equiv_pos_as_xyz
  'x, y, z'

loop_
  _atom_site_label
  _atom_site_occupancy
  _atom_site_fract_x
  _atom_site_fract_y
  _atom_site_fract_z
  _atom_site_thermal_displace_type
  _atom_site_B_iso_or_equiv
  _atom_site_type_symbol
  Zn1      1.0000 0.11962  0.29346  0.29346  Biso   1.000  Zn
  Zn2      1.0000 0.70654  0.88038  0.70654  Biso   1.000  Zn
  Zn3      1.0000 0.29346  0.29346  0.11962  Biso   1.000  Zn
  Zn4      1.0000 0.29346  0.29346  0.29346  Biso   1.000  Zn
  Zn5      1.0000 0.88038  0.70654  0.70654  Biso   1.000  Zn
  Zn6      1.0000 0.29346  0.11962  0.29346  Biso   1.000  Zn
  Zn7      1.0000 0.70654  0.70654  0.88038  Biso   1.000  Zn
  Zn8      1.0000 0.70654  0.70654  0.70654  Biso   1.000  Zn
  H1       1.0000 0.15060  0.45640  0.45640  Biso   1.000  H
  H2       1.0000 0.84940  0.54360  0.06340  Biso   1.000  H
  H3       1.0000 0.45640  0.93660  0.45640  Biso   1.000  H
  H4       1.0000 0.54360  0.84940  0.06340  Biso   1.000  H
  H5       1.0000 0.84940  0.54360  0.54360  Biso   1.000  H
  H6       1.0000 0.45640  0.15060  0.93660  Biso   1.000  H
  H7       1.0000 0.45640  0.93660  0.15060  Biso   1.000  H
  H8       1.0000 0.06340  0.54360  0.54360  Biso   1.000  H
  H9       1.0000 0.45640  0.15060  0.45640  Biso   1.000  H
  H10      1.0000 0.93660  0.45640  0.45640  Biso   1.000  H
  H11      1.0000 0.93660  0.15060  0.45640  Biso   1.000  H
  H12      1.0000 0.45640  0.45640  0.15060  Biso   1.000  H
  H13      1.0000 0.06340  0.84940  0.54360  Biso   1.000  H
  H14      1.0000 0.06340  0.54360  0.84940  Biso   1.000  H
  H15      1.0000 0.54360  0.06340  0.84940  Biso   1.000  H
  H16      1.0000 0.54360  0.84940  0.54360  Biso   1.000  H
  H17      1.0000 0.15060  0.93660  0.45640  Biso   1.000  H
  H18      1.0000 0.54360  0.06340  0.54360  Biso   1.000  H
  H19      1.0000 0.93660  0.45640  0.15060  Biso   1.000  H
  H20      1.0000 0.84940  0.06340  0.54360  Biso   1.000  H
  H21      1.0000 0.45640  0.45640  0.93660  Biso   1.000  H
  H22      1.0000 0.54360  0.54360  0.06340  Biso   1.000  H
  H23      1.0000 0.15060  0.45640  0.93660  Biso   1.000  H
  H24      1.0000 0.54360  0.54360  0.84940  Biso   1.000  H
  C1       1.0000 0.89030  0.60970  0.60970  Biso   1.000  C
  C2       1.0000 0.55390  0.55390  0.94610  Biso   1.000  C
  C3       1.0000 0.03650  0.91130  0.52610  Biso   1.000  C
  C4       1.0000 0.47390  0.96350  0.08870  Biso   1.000  C
  C5       1.0000 0.91130  0.52610  0.03650  Biso   1.000  C
  C6       1.0000 0.47390  0.47390  0.08870  Biso   1.000  C
  C7       1.0000 0.96350  0.08870  0.47390  Biso   1.000  C
  C8       1.0000 0.39030  0.10970  0.39030  Biso   1.000  C
  C9       1.0000 0.44610  0.05390  0.44610  Biso   1.000  C
  C10      1.0000 0.52610  0.52610  0.03650  Biso   1.000  C
  C11      1.0000 0.52610  0.91130  0.03650  Biso   1.000  C
  C12      1.0000 0.10970  0.10970  0.39030  Biso   1.000  C
  C13      1.0000 0.05390  0.44610  0.44610  Biso   1.000  C
  C14      1.0000 0.55390  0.94610  0.55390  Biso   1.000  C
  C15      1.0000 0.44610  0.05390  0.05390  Biso   1.000  C
  C16      1.0000 0.94610  0.55390  0.55390  Biso   1.000  C
  C17      1.0000 0.94610  0.55390  0.94610  Biso   1.000  C
  C18      1.0000 0.39030  0.39030  0.10970  Biso   1.000  C
  C19      1.0000 0.03650  0.52610  0.52610  Biso   1.000  C
  C20      1.0000 0.08870  0.47390  0.96350  Biso   1.000  C
  C21      1.0000 0.47390  0.96350  0.47390  Biso   1.000  C
  C22      1.0000 0.47390  0.47390  0.96350  Biso   1.000  C
  C23      1.0000 0.60970  0.89030  0.60970  Biso   1.000  C
  C24      1.0000 0.94610  0.94610  0.55390  Biso   1.000  C
  C25      1.0000 0.05390  0.05390  0.44610  Biso   1.000  C
  C26      1.0000 0.39030  0.10970  0.10970  Biso   1.000  C
  C27      1.0000 0.03650  0.52610  0.91130  Biso   1.000  C
  C28      1.0000 0.44610  0.44610  0.05390  Biso   1.000  C
  C29      1.0000 0.10970  0.39030  0.39030  Biso   1.000  C
  C30      1.0000 0.89030  0.89030  0.60970  Biso   1.000  C
  C31      1.0000 0.60970  0.89030  0.89030  Biso   1.000  C
  C32      1.0000 0.96350  0.47390  0.47390  Biso   1.000  C
  C33      1.0000 0.89030  0.60970  0.89030  Biso   1.000  C
  C34      1.0000 0.08870  0.47390  0.47390  Biso   1.000  C
  C35      1.0000 0.91130  0.52610  0.52610  Biso   1.000  C
  C36      1.0000 0.47390  0.08870  0.47390  Biso   1.000  C
  C37      1.0000 0.47390  0.08870  0.96350  Biso   1.000  C
  C38      1.0000 0.08870  0.96350  0.47390  Biso   1.000  C
  C39      1.0000 0.10970  0.39030  0.10970  Biso   1.000  C
  C40      1.0000 0.96350  0.47390  0.08870  Biso   1.000  C
  C41      1.0000 0.52610  0.52610  0.91130  Biso   1.000  C
  C42      1.0000 0.60970  0.60970  0.89030  Biso   1.000  C
  C43      1.0000 0.52610  0.91130  0.52610  Biso   1.000  C
  C44      1.0000 0.91130  0.03650  0.52610  Biso   1.000  C
  C45      1.0000 0.52610  0.03650  0.91130  Biso   1.000  C
  C46      1.0000 0.05390  0.44610  0.05390  Biso   1.000  C
  C47      1.0000 0.55390  0.94610  0.94610  Biso   1.000  C
  C48      1.0000 0.52610  0.03650  0.52610  Biso   1.000  C
  O1       1.0000 0.63380  0.80300  0.92940  Biso   1.000  O
  O2       1.0000 0.07060  0.19700  0.36620  Biso   1.000  O
  O3       1.0000 0.80300  0.63380  0.63380  Biso   1.000  O
  O4       1.0000 0.80300  0.92940  0.63380  Biso   1.000  O
  O5       1.0000 0.36620  0.07060  0.19700  Biso   1.000  O
  O6       1.0000 0.07060  0.36620  0.19700  Biso   1.000  O
  O7       1.0000 0.63380  0.92940  0.63380  Biso   1.000  O
  O8       1.0000 0.63380  0.80300  0.63380  Biso   1.000  O
  O9       1.0000 0.36620  0.36620  0.19700  Biso   1.000  O
  O10      1.0000 0.36620  0.07060  0.36620  Biso   1.000  O
  O11      1.0000 0.75000  0.75000  0.75000  Biso   1.000  O
  O12      1.0000 0.80300  0.63380  0.92940  Biso   1.000  O
  O13      1.0000 0.92940  0.80300  0.63380  Biso   1.000  O
  O14      1.0000 0.36620  0.19700  0.36620  Biso   1.000  O
  O15      1.0000 0.63380  0.63380  0.80300  Biso   1.000  O
  O16      1.0000 0.19700  0.36620  0.07060  Biso   1.000  O
  O17      1.0000 0.63380  0.63380  0.92940  Biso   1.000  O
  O18      1.0000 0.36620  0.36620  0.07060  Biso   1.000  O
  O19      1.0000 0.63380  0.92940  0.80300  Biso   1.000  O
  O20      1.0000 0.19700  0.07060  0.36620  Biso   1.000  O
  O21      1.0000 0.36620  0.19700  0.07060  Biso   1.000  O
  O22      1.0000 0.92940  0.63380  0.80300  Biso   1.000  O
  O23      1.0000 0.25000  0.25000  0.25000  Biso   1.000  O
  O24      1.0000 0.19700  0.36620  0.36620  Biso   1.000  O
  O25      1.0000 0.92940  0.63380  0.63380  Biso   1.000  O
  O26      1.0000 0.07060  0.36620  0.36620  Biso   1.000  O
  Zn9      1.0000 0.07732  0.58679  0.58732  Biso   1.000  Zn
  Zn10     1.0000 0.48932  0.17467  0.99952  Biso   1.000  Zn
  Zn11     1.0000 0.48932  0.99973  0.99952  Biso   1.000  Zn
  Zn12     1.0000 0.07732  0.41185  0.58732  Biso   1.000  Zn
  Zn13     1.0000 0.07686  0.58713  0.41215  Biso   1.000  Zn
  Zn14     1.0000 0.90199  0.58694  0.58742  Biso   1.000  Zn
  Zn15     1.0000 0.48978  0.99939  0.17469  Biso   1.000  Zn
  Zn16     1.0000 0.66465  0.99958  0.99942  Biso   1.000  Zn
  H25      1.0000 0.24017  0.23249  0.44369  Biso   1.000  H
  H26      1.0000 0.23415  0.44705  0.23189  Biso   1.000  H
  H27      1.0000 0.93619  0.23358  0.74754  Biso   1.000  H
  H28      1.0000 0.71892  0.44453  0.74984  Biso   1.000  H
  H29      1.0000 0.24098  0.44653  0.74504  Biso   1.000  H
  H30      1.0000 0.32647  0.83958  0.14315  Biso   1.000  H
  H31      1.0000 0.33249  0.83637  0.35495  Biso   1.000  H
  H32      1.0000 0.63045  0.84050  0.83930  Biso   1.000  H
  H33      1.0000 0.84772  0.83650  0.83700  Biso   1.000  H
  H34      1.0000 0.32565  0.35575  0.84180  Biso   1.000  H
  H35      1.0000 0.32647  0.35403  0.14315  Biso   1.000  H
  H36      1.0000 0.33249  0.13947  0.35495  Biso   1.000  H
  H37      1.0000 0.63044  0.35294  0.83930  Biso   1.000  H
  H38      1.0000 0.84772  0.14200  0.83700  Biso   1.000  H
  H39      1.0000 0.32566  0.14000  0.84180  Biso   1.000  H
  H40      1.0000 0.24017  0.74694  0.44369  Biso   1.000  H
  H41      1.0000 0.23415  0.75015  0.23189  Biso   1.000  H
  H42      1.0000 0.93619  0.74602  0.74754  Biso   1.000  H
  H43      1.0000 0.71892  0.75002  0.74984  Biso   1.000  H
  H44      1.0000 0.24098  0.23078  0.74504  Biso   1.000  H
  H45      1.0000 0.71981  0.74884  0.44579  Biso   1.000  H
  H46      1.0000 0.93376  0.74995  0.22959  Biso   1.000  H
  H47      1.0000 0.84683  0.83768  0.14105  Biso   1.000  H
  H48      1.0000 0.63288  0.83657  0.35725  Biso   1.000  H
  C49      1.0000 0.17164  0.40333  0.40727  Biso   1.000  C
  C50      1.0000 0.23125  0.34522  0.34604  Biso   1.000  C
  C51      1.0000 0.25797  0.25821  0.38146  Biso   1.000  C
  C52      1.0000 0.25355  0.38493  0.25790  Biso   1.000  C
  C53      1.0000 0.89247  0.40652  0.68451  Biso   1.000  C
  C54      1.0000 0.83835  0.34800  0.73983  Biso   1.000  C
  C55      1.0000 0.87398  0.25979  0.76555  Biso   1.000  C
  C56      1.0000 0.74663  0.38251  0.76735  Biso   1.000  C
  C57      1.0000 0.25688  0.38441  0.76515  Biso   1.000  C
  C58      1.0000 0.39500  0.90550  0.17956  Biso   1.000  C
  C59      1.0000 0.33538  0.84578  0.24079  Biso   1.000  C
  C60      1.0000 0.30867  0.82087  0.20538  Biso   1.000  C
  C61      1.0000 0.31308  0.81967  0.32894  Biso   1.000  C
  C62      1.0000 0.67417  0.90672  0.90233  Biso   1.000  C
  C63      1.0000 0.72828  0.84940  0.84700  Biso   1.000  C
  C64      1.0000 0.69266  0.82250  0.82129  Biso   1.000  C
  C65      1.0000 0.82001  0.81969  0.81949  Biso   1.000  C
  C66      1.0000 0.30975  0.32964  0.82169  Biso   1.000  C
  C67      1.0000 0.39500  0.18319  0.17956  Biso   1.000  C
  C68      1.0000 0.33539  0.24131  0.24079  Biso   1.000  C
  C69      1.0000 0.30867  0.32832  0.20538  Biso   1.000  C
  C70      1.0000 0.31308  0.20159  0.32894  Biso   1.000  C
  C71      1.0000 0.67417  0.18001  0.90233  Biso   1.000  C
  C72      1.0000 0.72828  0.23853  0.84700  Biso   1.000  C
  C73      1.0000 0.69266  0.32674  0.82129  Biso   1.000  C
  C74      1.0000 0.82001  0.20402  0.81949  Biso   1.000  C
  C75      1.0000 0.30975  0.20212  0.82169  Biso   1.000  C
  C76      1.0000 0.17164  0.68102  0.40727  Biso   1.000  C
  C77      1.0000 0.23125  0.74074  0.34604  Biso   1.000  C
  C78      1.0000 0.25797  0.76565  0.38146  Biso   1.000  C
  C79      1.0000 0.25356  0.76685  0.25790  Biso   1.000  C
  C80      1.0000 0.89247  0.67980  0.68451  Biso   1.000  C
  C81      1.0000 0.83836  0.73712  0.73983  Biso   1.000  C
  C82      1.0000 0.87397  0.76403  0.76555  Biso   1.000  C
  C83      1.0000 0.74663  0.76683  0.76735  Biso   1.000  C
  C84      1.0000 0.25689  0.25688  0.76515  Biso   1.000  C
  C85      1.0000 0.89916  0.68182  0.40047  Biso   1.000  C
  C86      1.0000 0.83694  0.73904  0.34825  Biso   1.000  C
  C87      1.0000 0.74701  0.76625  0.38376  Biso   1.000  C
  C88      1.0000 0.87164  0.76745  0.25670  Biso   1.000  C
  C89      1.0000 0.17015  0.40832  0.67650  Biso   1.000  C
  C90      1.0000 0.23017  0.34660  0.73993  Biso   1.000  C
  C91      1.0000 0.66748  0.90470  0.18637  Biso   1.000  C
  C92      1.0000 0.72970  0.84748  0.23859  Biso   1.000  C
  C93      1.0000 0.81963  0.82027  0.20308  Biso   1.000  C
  C94      1.0000 0.69499  0.81907  0.33014  Biso   1.000  C
  C95      1.0000 0.39649  0.17820  0.91033  Biso   1.000  C
  C96      1.0000 0.33647  0.23993  0.84690  Biso   1.000  C
  O27      1.0000 0.15153  0.48876  0.36135  Biso   1.000  O
  O28      1.0000 0.15284  0.35941  0.49151  Biso   1.000  O
  O29      1.0000 0.85256  0.48975  0.65800  Biso   1.000  O
  O30      1.0000 0.97879  0.36240  0.66200  Biso   1.000  O
  O31      1.0000 0.15104  0.49075  0.65920  Biso   1.000  O
  O32      1.0000 0.41511  0.92491  0.22549  Biso   1.000  O
  O33      1.0000 0.41380  0.92701  0.09532  Biso   1.000  O
  O34      1.0000 0.71408  0.92352  0.92884  Biso   1.000  O
  O35      1.0000 0.58784  0.92642  0.92484  Biso   1.000  O
  O36      1.0000 0.41559  0.22422  0.92764  Biso   1.000  O
  O37      1.0000 0.41511  0.09776  0.22549  Biso   1.000  O
  O38      1.0000 0.41380  0.22711  0.09532  Biso   1.000  O
  O39      1.0000 0.71408  0.09678  0.92884  Biso   1.000  O
  O40      1.0000 0.58785  0.22412  0.92484  Biso   1.000  O
  O41      1.0000 0.41559  0.09578  0.92764  Biso   1.000  O
  O42      1.0000 0.15153  0.66162  0.36135  Biso   1.000  O
  O43      1.0000 0.15284  0.65951  0.49151  Biso   1.000  O
  O44      1.0000 0.85256  0.66300  0.65800  Biso   1.000  O
  O45      1.0000 0.97879  0.66010  0.66200  Biso   1.000  O
  O46      1.0000 0.15104  0.36230  0.65920  Biso   1.000  O
  O47      1.0000 0.03410  0.54297  0.54324  Biso   1.000  O
  O48      1.0000 0.97998  0.66062  0.36205  Biso   1.000  O
  O49      1.0000 0.85395  0.66291  0.48351  Biso   1.000  O
  O50      1.0000 0.53253  0.04355  0.04360  Biso   1.000  O
  O51      1.0000 0.58666  0.92591  0.22479  Biso   1.000  O
  O52      1.0000 0.71269  0.92361  0.10333  Biso   1.000  O
