data_image0
_cell_length_a       18.2486
_cell_length_b       18.2486
_cell_length_c       18.2486
_cell_angle_alpha    60
_cell_angle_beta     60
_cell_angle_gamma    60

_symmetry_space_group_name_H-M    "P 1"
_symmetry_int_tables_number       1

loop_
  _symmetry_equiv_pos_as_xyz
  'x, y, z'

loop_
  _atom_site_label
  _atom_site_occupancy
  _atom_site_fract_x
  _atom_site_fract_y
  _atom_site_fract_z
  _atom_site_thermal_displace_type
  _atom_site_B_iso_or_equiv
  _atom_site_type_symbol
  C1       1.0000 0.11962  0.29346  0.29346  Biso   1.000  C
  C2       1.0000 0.70654  0.88038  0.70654  Biso   1.000  C
  C3       1.0000 0.29346  0.29346  0.11962  Biso   1.000  C
  C4       1.0000 0.29346  0.29346  0.29346  Biso   1.000  C
  C5       1.0000 0.88038  0.70654  0.70654  Biso   1.000  C
  C6       1.0000 0.29346  0.11962  0.29346  Biso   1.000  C
  C7       1.0000 0.70654  0.70654  0.88038  Biso   1.000  C
  C8       1.0000 0.70654  0.70654  0.70654  Biso   1.000  C
  C9       1.0000 0.15060  0.45640  0.45640  Biso   1.000  C
  C10      1.0000 0.84940  0.54360  0.06340  Biso   1.000  C
  C11      1.0000 0.45640  0.93660  0.45640  Biso   1.000  C
  C12      1.0000 0.54360  0.84940  0.06340  Biso   1.000  C
  C13      1.0000 0.84940  0.54360  0.54360  Biso   1.000  C
  C14      1.0000 0.45640  0.15060  0.93660  Biso   1.000  C
  C15      1.0000 0.45640  0.93660  0.15060  Biso   1.000  C
  C16      1.0000 0.06340  0.54360  0.54360  Biso   1.000  C
  C17      1.0000 0.45640  0.15060  0.45640  Biso   1.000  C
  C18      1.0000 0.93660  0.45640  0.45640  Biso   1.000  C
  C19      1.0000 0.93660  0.15060  0.45640  Biso   1.000  C
  C20      1.0000 0.45640  0.45640  0.15060  Biso   1.000  C
  C21      1.0000 0.06340  0.84940  0.54360  Biso   1.000  C
  C22      1.0000 0.06340  0.54360  0.84940  Biso   1.000  C
  C23      1.0000 0.54360  0.06340  0.84940  Biso   1.000  C
  C24      1.0000 0.54360  0.84940  0.54360  Biso   1.000  C
  C25      1.0000 0.15060  0.93660  0.45640  Biso   1.000  C
  C26      1.0000 0.54360  0.06340  0.54360  Biso   1.000  C
  C27      1.0000 0.93660  0.45640  0.15060  Biso   1.000  C
  C28      1.0000 0.84940  0.06340  0.54360  Biso   1.000  C
  C29      1.0000 0.45640  0.45640  0.93660  Biso   1.000  C
  C30      1.0000 0.54360  0.54360  0.06340  Biso   1.000  C
  C31      1.0000 0.15060  0.45640  0.93660  Biso   1.000  C
  C32      1.0000 0.54360  0.54360  0.84940  Biso   1.000  C
  C33      1.0000 0.89030  0.60970  0.60970  Biso   1.000  C
  C34      1.0000 0.55390  0.55390  0.94610  Biso   1.000  C
  C35      1.0000 0.03650  0.91130  0.52610  Biso   1.000  C
  C36      1.0000 0.47390  0.96350  0.08870  Biso   1.000  C
  C37      1.0000 0.91130  0.52610  0.03650  Biso   1.000  C
  C38      1.0000 0.47390  0.47390  0.08870  Biso   1.000  C
  C39      1.0000 0.96350  0.08870  0.47390  Biso   1.000  C
  C40      1.0000 0.39030  0.10970  0.39030  Biso   1.000  C
  C41      1.0000 0.44610  0.05390  0.44610  Biso   1.000  C
  C42      1.0000 0.52610  0.52610  0.03650  Biso   1.000  C
  C43      1.0000 0.52610  0.91130  0.03650  Biso   1.000  C
  C44      1.0000 0.10970  0.10970  0.39030  Biso   1.000  C
  C45      1.0000 0.05390  0.44610  0.44610  Biso   1.000  C
  C46      1.0000 0.55390  0.94610  0.55390  Biso   1.000  C
  C47      1.0000 0.44610  0.05390  0.05390  Biso   1.000  C
  C48      1.0000 0.94610  0.55390  0.55390  Biso   1.000  C
  C49      1.0000 0.94610  0.55390  0.94610  Biso   1.000  C
  C50      1.0000 0.39030  0.39030  0.10970  Biso   1.000  C
  C51      1.0000 0.03650  0.52610  0.52610  Biso   1.000  C
  C52      1.0000 0.08870  0.47390  0.96350  Biso   1.000  C
  C53      1.0000 0.47390  0.96350  0.47390  Biso   1.000  C
  C54      1.0000 0.47390  0.47390  0.96350  Biso   1.000  C
  C55      1.0000 0.60970  0.89030  0.60970  Biso   1.000  C
  C56      1.0000 0.94610  0.94610  0.55390  Biso   1.000  C
  C57      1.0000 0.05390  0.05390  0.44610  Biso   1.000  C
  C58      1.0000 0.39030  0.10970  0.10970  Biso   1.000  C
  C59      1.0000 0.03650  0.52610  0.91130  Biso   1.000  C
  C60      1.0000 0.44610  0.44610  0.05390  Biso   1.000  C
  C61      1.0000 0.10970  0.39030  0.39030  Biso   1.000  C
  C62      1.0000 0.89030  0.89030  0.60970  Biso   1.000  C
  C63      1.0000 0.60970  0.89030  0.89030  Biso   1.000  C
  C64      1.0000 0.96350  0.47390  0.47390  Biso   1.000  C
  C65      1.0000 0.89030  0.60970  0.89030  Biso   1.000  C
  C66      1.0000 0.08870  0.47390  0.47390  Biso   1.000  C
  C67      1.0000 0.91130  0.52610  0.52610  Biso   1.000  C
  C68      1.0000 0.47390  0.08870  0.47390  Biso   1.000  C
  C69      1.0000 0.47390  0.08870  0.96350  Biso   1.000  C
  C70      1.0000 0.08870  0.96350  0.47390  Biso   1.000  C
  C71      1.0000 0.10970  0.39030  0.10970  Biso   1.000  C
  C72      1.0000 0.96350  0.47390  0.08870  Biso   1.000  C
  C73      1.0000 0.52610  0.52610  0.91130  Biso   1.000  C
  C74      1.0000 0.60970  0.60970  0.89030  Biso   1.000  C
  C75      1.0000 0.52610  0.91130  0.52610  Biso   1.000  C
  C76      1.0000 0.91130  0.03650  0.52610  Biso   1.000  C
  C77      1.0000 0.52610  0.03650  0.91130  Biso   1.000  C
  C78      1.0000 0.05390  0.44610  0.05390  Biso   1.000  C
  C79      1.0000 0.55390  0.94610  0.94610  Biso   1.000  C
  C80      1.0000 0.52610  0.03650  0.52610  Biso   1.000  C
  C81      1.0000 0.63380  0.80300  0.92940  Biso   1.000  C
  C82      1.0000 0.07060  0.19700  0.36620  Biso   1.000  C
  C83      1.0000 0.80300  0.63380  0.63380  Biso   1.000  C
  C84      1.0000 0.80300  0.92940  0.63380  Biso   1.000  C
  C85      1.0000 0.36620  0.07060  0.19700  Biso   1.000  C
  C86      1.0000 0.07060  0.36620  0.19700  Biso   1.000  C
  C87      1.0000 0.63380  0.92940  0.63380  Biso   1.000  C
  C88      1.0000 0.63380  0.80300  0.63380  Biso   1.000  C
  C89      1.0000 0.36620  0.36620  0.19700  Biso   1.000  C
  C90      1.0000 0.36620  0.07060  0.36620  Biso   1.000  C
  C91      1.0000 0.75000  0.75000  0.75000  Biso   1.000  C
  C92      1.0000 0.80300  0.63380  0.92940  Biso   1.000  C
  C93      1.0000 0.92940  0.80300  0.63380  Biso   1.000  C
  C94      1.0000 0.36620  0.19700  0.36620  Biso   1.000  C
  C95      1.0000 0.63380  0.63380  0.80300  Biso   1.000  C
  C96      1.0000 0.19700  0.36620  0.07060  Biso   1.000  C
  C97      1.0000 0.63380  0.63380  0.92940  Biso   1.000  C
  C98      1.0000 0.36620  0.36620  0.07060  Biso   1.000  C
  C99      1.0000 0.63380  0.92940  0.80300  Biso   1.000  C
  C100     1.0000 0.19700  0.07060  0.36620  Biso   1.000  C
  C101     1.0000 0.36620  0.19700  0.07060  Biso   1.000  C
  C102     1.0000 0.92940  0.63380  0.80300  Biso   1.000  C
  C103     1.0000 0.25000  0.25000  0.25000  Biso   1.000  C
  C104     1.0000 0.19700  0.36620  0.36620  Biso   1.000  C
  C105     1.0000 0.92940  0.63380  0.63380  Biso   1.000  C
  C106     1.0000 0.07060  0.36620  0.36620  Biso   1.000  C
  O1       1.0000 0.68635  0.34966  0.46991  Biso   1.000  O
  O2       1.0000 0.09875  0.76204  0.05758  Biso   1.000  O
  O3       1.0000 0.92433  0.93645  0.05758  Biso   1.000  O
  O4       1.0000 0.51193  0.52407  0.46991  Biso   1.000  O
  O5       1.0000 0.51174  0.34946  0.64449  Biso   1.000  O
  O6       1.0000 0.51187  0.34959  0.46970  Biso   1.000  O
  O7       1.0000 0.09895  0.93665  0.88300  Biso   1.000  O
  O8       1.0000 0.09882  0.93652  0.05779  Biso   1.000  O
  O9       1.0000 0.34917  0.70672  0.61137  Biso   1.000  O
  O10      1.0000 0.34605  0.49086  0.82538  Biso   1.000  O
  O11      1.0000 0.35279  0.70474  0.30873  Biso   1.000  O
  O12      1.0000 0.35228  0.48969  0.30342  Biso   1.000  O
  O13      1.0000 0.86813  0.49029  0.31053  Biso   1.000  O
  O14      1.0000 0.74166  0.09923  0.91612  Biso   1.000  O
  O15      1.0000 0.95754  0.10234  0.70212  Biso   1.000  O
  O16      1.0000 0.74364  0.09562  0.21877  Biso   1.000  O
  O17      1.0000 0.95871  0.09611  0.22407  Biso   1.000  O
  O18      1.0000 0.95811  0.58027  0.21696  Biso   1.000  O
  O19      1.0000 0.26151  0.57939  0.91612  Biso   1.000  O
  O20      1.0000 0.26464  0.79525  0.70212  Biso   1.000  O
  O21      1.0000 0.25790  0.58137  0.21877  Biso   1.000  O
  O22      1.0000 0.25840  0.79642  0.22407  Biso   1.000  O
  O23      1.0000 0.74255  0.79582  0.21696  Biso   1.000  O
  O24      1.0000 0.86902  0.18688  0.61137  Biso   1.000  O
  O25      1.0000 0.65314  0.18376  0.82538  Biso   1.000  O
  O26      1.0000 0.86704  0.19049  0.30873  Biso   1.000  O
  O27      1.0000 0.65197  0.18999  0.30342  Biso   1.000  O
  O28      1.0000 0.65257  0.70584  0.31053  Biso   1.000  O
  O29      1.0000 0.35046  0.18818  0.61067  Biso   1.000  O
  O30      1.0000 0.34775  0.18546  0.82928  Biso   1.000  O
  O31      1.0000 0.26022  0.09793  0.91682  Biso   1.000  O
  O32      1.0000 0.26293  0.10064  0.69821  Biso   1.000  O
  O33      1.0000 0.41718  0.53378  0.65009  Biso   1.000  O
  O34      1.0000 0.35835  0.59080  0.71052  Biso   1.000  O
  O35      1.0000 0.33226  0.68021  0.67370  Biso   1.000  O
  O36      1.0000 0.33044  0.55308  0.79976  Biso   1.000  O
  O37      1.0000 0.41759  0.53260  0.37336  Biso   1.000  O
  O38      1.0000 0.36168  0.58832  0.31643  Biso   1.000  O
  O39      1.0000 0.33388  0.67903  0.29122  Biso   1.000  O
  O40      1.0000 0.33347  0.55171  0.28782  Biso   1.000  O
  O41      1.0000 0.84183  0.55241  0.29102  Biso   1.000  O
  O42      1.0000 0.91462  0.03121  0.87740  Biso   1.000  O
  O43      1.0000 0.85761  0.09003  0.81697  Biso   1.000  O
  O44      1.0000 0.76817  0.11614  0.85379  Biso   1.000  O
  O45      1.0000 0.89532  0.11795  0.72773  Biso   1.000  O
  O46      1.0000 0.91580  0.03080  0.15413  Biso   1.000  O
  O47      1.0000 0.86008  0.08671  0.21106  Biso   1.000  O
  O48      1.0000 0.76935  0.11452  0.23627  Biso   1.000  O
  O49      1.0000 0.89669  0.11492  0.23968  Biso   1.000  O
  O50      1.0000 0.89599  0.60658  0.23647  Biso   1.000  O
  O51      1.0000 0.19351  0.75232  0.87740  Biso   1.000  O
  O52      1.0000 0.25233  0.69531  0.81697  Biso   1.000  O
  O53      1.0000 0.27842  0.60590  0.85379  Biso   1.000  O
  O54      1.0000 0.28024  0.73302  0.72773  Biso   1.000  O
  O55      1.0000 0.19309  0.75351  0.15413  Biso   1.000  O
  O56      1.0000 0.24900  0.69779  0.21106  Biso   1.000  O
  O57      1.0000 0.27680  0.60708  0.23627  Biso   1.000  O
  O58      1.0000 0.27721  0.73440  0.23968  Biso   1.000  O
  O59      1.0000 0.76885  0.73370  0.23647  Biso   1.000  O
  O60      1.0000 0.69606  0.25490  0.65009  Biso   1.000  O
  O61      1.0000 0.75307  0.19607  0.71052  Biso   1.000  O
  O62      1.0000 0.84251  0.16997  0.67370  Biso   1.000  O
  O63      1.0000 0.71536  0.16816  0.79976  Biso   1.000  O
  O64      1.0000 0.69488  0.25531  0.37336  Biso   1.000  O
  O65      1.0000 0.75060  0.19940  0.31643  Biso   1.000  O
  O66      1.0000 0.84133  0.17159  0.29122  Biso   1.000  O
  O67      1.0000 0.71399  0.17119  0.28782  Biso   1.000  O
  O68      1.0000 0.71469  0.67953  0.29102  Biso   1.000  O
  O69      1.0000 0.41548  0.25319  0.65669  Biso   1.000  O
  O70      1.0000 0.35936  0.19707  0.70972  Biso   1.000  O
  O71      1.0000 0.33275  0.17047  0.67270  Biso   1.000  O
  O72      1.0000 0.33035  0.16806  0.80176  Biso   1.000  O
  O73      1.0000 0.69197  0.52970  0.37856  Biso   1.000  O
  O74      1.0000 0.75219  0.58992  0.31653  Biso   1.000  O
  O75      1.0000 0.19520  0.03291  0.87080  Biso   1.000  O
  O76      1.0000 0.25132  0.08903  0.81777  Biso   1.000  O
  O77      1.0000 0.27793  0.11564  0.85479  Biso   1.000  O
  O78      1.0000 0.28034  0.11805  0.72573  Biso   1.000  O
  O79      1.0000 0.91871  0.75641  0.14893  Biso   1.000  O
  O80      1.0000 0.85849  0.69619  0.21096  Biso   1.000  O
  O81      1.0000 0.43728  0.44806  0.69361  Biso   1.000  O
  O82      1.0000 0.43969  0.57430  0.56735  Biso   1.000  O
  O83      1.0000 0.43700  0.44697  0.39867  Biso   1.000  O
  O84      1.0000 0.43920  0.57281  0.39587  Biso   1.000  O
  O85      1.0000 0.73438  0.44667  0.39817  Biso   1.000  O
  O86      1.0000 0.00035  0.01111  0.83388  Biso   1.000  O
  O87      1.0000 0.87410  0.00870  0.96014  Biso   1.000  O
  O88      1.0000 0.00143  0.01139  0.12882  Biso   1.000  O
  O89      1.0000 0.87559  0.00919  0.13162  Biso   1.000  O
  O90      1.0000 0.00173  0.71400  0.12932  Biso   1.000  O
  O91      1.0000 0.17340  0.83805  0.83388  Biso   1.000  O
  O92      1.0000 0.17099  0.71181  0.96014  Biso   1.000  O
  O93      1.0000 0.17368  0.83914  0.12882  Biso   1.000  O
  O94      1.0000 0.17148  0.71330  0.13162  Biso   1.000  O
  O95      1.0000 0.87630  0.83944  0.12932  Biso   1.000  O
  O96      1.0000 0.61033  0.27500  0.69361  Biso   1.000  O
  O97      1.0000 0.73658  0.27741  0.56735  Biso   1.000  O
  O98      1.0000 0.60925  0.27472  0.39867  Biso   1.000  O
  O99      1.0000 0.73509  0.27692  0.39587  Biso   1.000  O
  O100     1.0000 0.60895  0.57211  0.39817  Biso   1.000  O
  O101     1.0000 0.55533  0.39305  0.51383  Biso   1.000  O
  O102     1.0000 0.43868  0.27640  0.69261  Biso   1.000  O
  O103     1.0000 0.43709  0.27481  0.57205  Biso   1.000  O
  O104     1.0000 0.05536  0.89306  0.01367  Biso   1.000  O
  O105     1.0000 0.17200  0.00971  0.83488  Biso   1.000  O
  O106     1.0000 0.17359  0.01130  0.95544  Biso   1.000  O
