data_image0
_cell_length_a       18.2486
_cell_length_b       18.2486
_cell_length_c       18.2486
_cell_angle_alpha    60
_cell_angle_beta     60
_cell_angle_gamma    60

_symmetry_space_group_name_H-M    "P 1"
_symmetry_int_tables_number       1

loop_
  _symmetry_equiv_pos_as_xyz
  'x, y, z'

loop_
  _atom_site_label
  _atom_site_occupancy
  _atom_site_fract_x
  _atom_site_fract_y
  _atom_site_fract_z
  _atom_site_thermal_displace_type
  _atom_site_B_iso_or_equiv
  _atom_site_type_symbol
  Zn1      1.0000 0.11962  0.29346  0.29346  Biso   1.000  Zn
  Zn2      1.0000 0.70654  0.88038  0.70654  Biso   1.000  Zn
  Zn3      1.0000 0.29346  0.29346  0.11962  Biso   1.000  Zn
  Zn4      1.0000 0.29346  0.29346  0.29346  Biso   1.000  Zn
  Zn5      1.0000 0.88038  0.70654  0.70654  Biso   1.000  Zn
  Zn6      1.0000 0.29346  0.11962  0.29346  Biso   1.000  Zn
  Zn7      1.0000 0.70654  0.70654  0.88038  Biso   1.000  Zn
  Zn8      1.0000 0.70654  0.70654  0.70654  Biso   1.000  Zn
  H1       1.0000 0.15060  0.45640  0.45640  Biso   1.000  H
  H2       1.0000 0.84940  0.54360  0.06340  Biso   1.000  H
  H3       1.0000 0.45640  0.93660  0.45640  Biso   1.000  H
  H4       1.0000 0.54360  0.84940  0.06340  Biso   1.000  H
  H5       1.0000 0.84940  0.54360  0.54360  Biso   1.000  H
  H6       1.0000 0.45640  0.15060  0.93660  Biso   1.000  H
  H7       1.0000 0.45640  0.93660  0.15060  Biso   1.000  H
  H8       1.0000 0.06340  0.54360  0.54360  Biso   1.000  H
  H9       1.0000 0.45640  0.15060  0.45640  Biso   1.000  H
  H10      1.0000 0.93660  0.45640  0.45640  Biso   1.000  H
  H11      1.0000 0.93660  0.15060  0.45640  Biso   1.000  H
  H12      1.0000 0.45640  0.45640  0.15060  Biso   1.000  H
  H13      1.0000 0.06340  0.84940  0.54360  Biso   1.000  H
  H14      1.0000 0.06340  0.54360  0.84940  Biso   1.000  H
  H15      1.0000 0.54360  0.06340  0.84940  Biso   1.000  H
  H16      1.0000 0.54360  0.84940  0.54360  Biso   1.000  H
  H17      1.0000 0.15060  0.93660  0.45640  Biso   1.000  H
  H18      1.0000 0.54360  0.06340  0.54360  Biso   1.000  H
  H19      1.0000 0.93660  0.45640  0.15060  Biso   1.000  H
  H20      1.0000 0.84940  0.06340  0.54360  Biso   1.000  H
  H21      1.0000 0.45640  0.45640  0.93660  Biso   1.000  H
  H22      1.0000 0.54360  0.54360  0.06340  Biso   1.000  H
  H23      1.0000 0.15060  0.45640  0.93660  Biso   1.000  H
  H24      1.0000 0.54360  0.54360  0.84940  Biso   1.000  H
  C1       1.0000 0.89030  0.60970  0.60970  Biso   1.000  C
  C2       1.0000 0.55390  0.55390  0.94610  Biso   1.000  C
  C3       1.0000 0.03650  0.91130  0.52610  Biso   1.000  C
  C4       1.0000 0.47390  0.96350  0.08870  Biso   1.000  C
  C5       1.0000 0.91130  0.52610  0.03650  Biso   1.000  C
  C6       1.0000 0.47390  0.47390  0.08870  Biso   1.000  C
  C7       1.0000 0.96350  0.08870  0.47390  Biso   1.000  C
  C8       1.0000 0.39030  0.10970  0.39030  Biso   1.000  C
  C9       1.0000 0.44610  0.05390  0.44610  Biso   1.000  C
  C10      1.0000 0.52610  0.52610  0.03650  Biso   1.000  C
  C11      1.0000 0.52610  0.91130  0.03650  Biso   1.000  C
  C12      1.0000 0.10970  0.10970  0.39030  Biso   1.000  C
  C13      1.0000 0.05390  0.44610  0.44610  Biso   1.000  C
  C14      1.0000 0.55390  0.94610  0.55390  Biso   1.000  C
  C15      1.0000 0.44610  0.05390  0.05390  Biso   1.000  C
  C16      1.0000 0.94610  0.55390  0.55390  Biso   1.000  C
  C17      1.0000 0.94610  0.55390  0.94610  Biso   1.000  C
  C18      1.0000 0.39030  0.39030  0.10970  Biso   1.000  C
  C19      1.0000 0.03650  0.52610  0.52610  Biso   1.000  C
  C20      1.0000 0.08870  0.47390  0.96350  Biso   1.000  C
  C21      1.0000 0.47390  0.96350  0.47390  Biso   1.000  C
  C22      1.0000 0.47390  0.47390  0.96350  Biso   1.000  C
  C23      1.0000 0.60970  0.89030  0.60970  Biso   1.000  C
  C24      1.0000 0.94610  0.94610  0.55390  Biso   1.000  C
  C25      1.0000 0.05390  0.05390  0.44610  Biso   1.000  C
  C26      1.0000 0.39030  0.10970  0.10970  Biso   1.000  C
  C27      1.0000 0.03650  0.52610  0.91130  Biso   1.000  C
  C28      1.0000 0.44610  0.44610  0.05390  Biso   1.000  C
  C29      1.0000 0.10970  0.39030  0.39030  Biso   1.000  C
  C30      1.0000 0.89030  0.89030  0.60970  Biso   1.000  C
  C31      1.0000 0.60970  0.89030  0.89030  Biso   1.000  C
  C32      1.0000 0.96350  0.47390  0.47390  Biso   1.000  C
  C33      1.0000 0.89030  0.60970  0.89030  Biso   1.000  C
  C34      1.0000 0.08870  0.47390  0.47390  Biso   1.000  C
  C35      1.0000 0.91130  0.52610  0.52610  Biso   1.000  C
  C36      1.0000 0.47390  0.08870  0.47390  Biso   1.000  C
  C37      1.0000 0.47390  0.08870  0.96350  Biso   1.000  C
  C38      1.0000 0.08870  0.96350  0.47390  Biso   1.000  C
  C39      1.0000 0.10970  0.39030  0.10970  Biso   1.000  C
  C40      1.0000 0.96350  0.47390  0.08870  Biso   1.000  C
  C41      1.0000 0.52610  0.52610  0.91130  Biso   1.000  C
  C42      1.0000 0.60970  0.60970  0.89030  Biso   1.000  C
  C43      1.0000 0.52610  0.91130  0.52610  Biso   1.000  C
  C44      1.0000 0.91130  0.03650  0.52610  Biso   1.000  C
  C45      1.0000 0.52610  0.03650  0.91130  Biso   1.000  C
  C46      1.0000 0.05390  0.44610  0.05390  Biso   1.000  C
  C47      1.0000 0.55390  0.94610  0.94610  Biso   1.000  C
  C48      1.0000 0.52610  0.03650  0.52610  Biso   1.000  C
  O1       1.0000 0.63380  0.80300  0.92940  Biso   1.000  O
  O2       1.0000 0.07060  0.19700  0.36620  Biso   1.000  O
  O3       1.0000 0.80300  0.63380  0.63380  Biso   1.000  O
  O4       1.0000 0.80300  0.92940  0.63380  Biso   1.000  O
  O5       1.0000 0.36620  0.07060  0.19700  Biso   1.000  O
  O6       1.0000 0.07060  0.36620  0.19700  Biso   1.000  O
  O7       1.0000 0.63380  0.92940  0.63380  Biso   1.000  O
  O8       1.0000 0.63380  0.80300  0.63380  Biso   1.000  O
  O9       1.0000 0.36620  0.36620  0.19700  Biso   1.000  O
  O10      1.0000 0.36620  0.07060  0.36620  Biso   1.000  O
  O11      1.0000 0.75000  0.75000  0.75000  Biso   1.000  O
  O12      1.0000 0.80300  0.63380  0.92940  Biso   1.000  O
  O13      1.0000 0.92940  0.80300  0.63380  Biso   1.000  O
  O14      1.0000 0.36620  0.19700  0.36620  Biso   1.000  O
  O15      1.0000 0.63380  0.63380  0.80300  Biso   1.000  O
  O16      1.0000 0.19700  0.36620  0.07060  Biso   1.000  O
  O17      1.0000 0.63380  0.63380  0.92940  Biso   1.000  O
  O18      1.0000 0.36620  0.36620  0.07060  Biso   1.000  O
  O19      1.0000 0.63380  0.92940  0.80300  Biso   1.000  O
  O20      1.0000 0.19700  0.07060  0.36620  Biso   1.000  O
  O21      1.0000 0.36620  0.19700  0.07060  Biso   1.000  O
  O22      1.0000 0.92940  0.63380  0.80300  Biso   1.000  O
  O23      1.0000 0.25000  0.25000  0.25000  Biso   1.000  O
  O24      1.0000 0.19700  0.36620  0.36620  Biso   1.000  O
  O25      1.0000 0.92940  0.63380  0.63380  Biso   1.000  O
  O26      1.0000 0.07060  0.36620  0.36620  Biso   1.000  O
  Zn9      1.0000 0.00547  0.83457  0.13318  Biso   1.000  Zn
  Zn10     1.0000 0.83401  0.00603  0.13318  Biso   1.000  Zn
  Zn11     1.0000 0.42750  0.42806  0.72667  Biso   1.000  Zn
  Zn12     1.0000 0.00547  0.00603  0.13318  Biso   1.000  Zn
  Zn13     1.0000 0.42750  0.59952  0.55521  Biso   1.000  Zn
  Zn14     1.0000 0.42750  0.42806  0.55521  Biso   1.000  Zn
  Zn15     1.0000 0.59896  0.42806  0.55521  Biso   1.000  Zn
  Zn16     1.0000 0.00547  0.00603  0.96173  Biso   1.000  Zn
  C49      1.0000 0.63073  0.75337  0.37666  Biso   1.000  C
  C50      1.0000 0.18402  0.68072  0.31173  Biso   1.000  C
  C51      1.0000 0.75281  0.24951  0.37666  Biso   1.000  C
  C52      1.0000 0.15566  0.77011  0.89726  Biso   1.000  C
  C53      1.0000 0.63073  0.24951  0.88052  Biso   1.000  C
  C54      1.0000 0.76955  0.77011  0.28338  Biso   1.000  C
  C55      1.0000 0.60553  0.60609  0.46291  Biso   1.000  C
  C56      1.0000 0.68016  0.80279  0.31173  Biso   1.000  C
  C57      1.0000 0.80223  0.68072  0.31173  Biso   1.000  C
  C58      1.0000 0.15566  0.15622  0.89726  Biso   1.000  C
  C59      1.0000 0.15566  0.77011  0.28338  Biso   1.000  C
  C60      1.0000 0.24895  0.75337  0.75845  Biso   1.000  C
  C61      1.0000 0.24895  0.63130  0.37666  Biso   1.000  C
  C62      1.0000 0.09778  0.82800  0.22549  Biso   1.000  C
  C63      1.0000 0.82744  0.09834  0.95515  Biso   1.000  C
  C64      1.0000 0.60553  0.33575  0.46291  Biso   1.000  C
  C65      1.0000 0.82744  0.09834  0.22549  Biso   1.000  C
  C66      1.0000 0.82744  0.82800  0.22549  Biso   1.000  C
  C67      1.0000 0.75281  0.63130  0.37666  Biso   1.000  C
  C68      1.0000 0.80223  0.18458  0.31173  Biso   1.000  C
  C69      1.0000 0.33519  0.60609  0.46291  Biso   1.000  C
  C70      1.0000 0.68016  0.18458  0.31173  Biso   1.000  C
  C71      1.0000 0.24895  0.63130  0.88052  Biso   1.000  C
  C72      1.0000 0.09778  0.09834  0.95515  Biso   1.000  C
  C73      1.0000 0.68016  0.18458  0.92995  Biso   1.000  C
  C74      1.0000 0.60553  0.33575  0.73325  Biso   1.000  C
  C75      1.0000 0.27730  0.66398  0.40502  Biso   1.000  C
  C76      1.0000 0.63073  0.24951  0.37666  Biso   1.000  C
  C77      1.0000 0.18402  0.18458  0.80787  Biso   1.000  C
  C78      1.0000 0.09778  0.82800  0.95515  Biso   1.000  C
  C79      1.0000 0.75281  0.24951  0.75845  Biso   1.000  C
  C80      1.0000 0.18402  0.18458  0.92995  Biso   1.000  C
  C81      1.0000 0.66342  0.27787  0.79113  Biso   1.000  C
  C82      1.0000 0.24895  0.75337  0.37666  Biso   1.000  C
  C83      1.0000 0.24895  0.24951  0.75845  Biso   1.000  C
  C84      1.0000 0.33519  0.60609  0.73325  Biso   1.000  C
  C85      1.0000 0.24895  0.24951  0.88052  Biso   1.000  C
  C86      1.0000 0.18402  0.68072  0.92995  Biso   1.000  C
  C87      1.0000 0.18402  0.80279  0.80787  Biso   1.000  C
  C88      1.0000 0.76955  0.15622  0.28338  Biso   1.000  C
  C89      1.0000 0.18402  0.80279  0.31173  Biso   1.000  C
  C90      1.0000 0.66342  0.27787  0.40502  Biso   1.000  C
  C91      1.0000 0.27730  0.66398  0.79113  Biso   1.000  C
  C92      1.0000 0.33519  0.33575  0.73325  Biso   1.000  C
  C93      1.0000 0.27730  0.27787  0.79113  Biso   1.000  C
  C94      1.0000 0.76955  0.15622  0.89726  Biso   1.000  C
  C95      1.0000 0.80223  0.18458  0.80787  Biso   1.000  C
  C96      1.0000 0.66342  0.66398  0.40502  Biso   1.000  C
  O27      1.0000 0.35577  0.64791  0.48348  Biso   1.000  O
  O28      1.0000 0.35577  0.64791  0.65027  Biso   1.000  O
  O29      1.0000 0.07720  0.78618  0.20491  Biso   1.000  O
  O30      1.0000 0.52256  0.35633  0.77507  Biso   1.000  O
  O31      1.0000 0.35577  0.35633  0.77507  Biso   1.000  O
  O32      1.0000 0.07720  0.78618  0.03812  Biso   1.000  O
  O33      1.0000 0.91041  0.07776  0.91333  Biso   1.000  O
  O34      1.0000 0.07720  0.07776  0.91333  Biso   1.000  O
  O35      1.0000 0.35577  0.52312  0.48348  Biso   1.000  O
  O36      1.0000 0.64735  0.52312  0.48348  Biso   1.000  O
  O37      1.0000 0.07720  0.91097  0.20491  Biso   1.000  O
  O38      1.0000 0.35577  0.35633  0.65027  Biso   1.000  O
  O39      1.0000 0.91041  0.07776  0.20491  Biso   1.000  O
  O40      1.0000 0.78561  0.91097  0.20491  Biso   1.000  O
  O41      1.0000 0.78561  0.07776  0.20491  Biso   1.000  O
  O42      1.0000 0.35577  0.52312  0.77507  Biso   1.000  O
  O43      1.0000 0.47036  0.47092  0.59808  Biso   1.000  O
  O44      1.0000 0.52256  0.64791  0.48348  Biso   1.000  O
  O45      1.0000 0.91041  0.78618  0.20491  Biso   1.000  O
  O46      1.0000 0.78561  0.07776  0.03812  Biso   1.000  O
  O47      1.0000 0.64735  0.35633  0.48348  Biso   1.000  O
  O48      1.0000 0.07720  0.07776  0.03812  Biso   1.000  O
  O49      1.0000 0.96261  0.96317  0.09032  Biso   1.000  O
  O50      1.0000 0.52256  0.35633  0.48348  Biso   1.000  O
  O51      1.0000 0.07720  0.91097  0.91333  Biso   1.000  O
  O52      1.0000 0.64735  0.35633  0.65027  Biso   1.000  O
  H25      1.0000 0.55514  0.78514  0.39858  Biso   1.000  H
  H26      1.0000 0.16433  0.64503  0.29204  Biso   1.000  H
  H27      1.0000 0.78458  0.27143  0.39858  Biso   1.000  H
  H28      1.0000 0.55514  0.27143  0.91229  Biso   1.000  H
  H29      1.0000 0.64839  0.87839  0.28982  Biso   1.000  H
  H30      1.0000 0.87730  0.64503  0.29204  Biso   1.000  H
  H31      1.0000 0.27087  0.78514  0.68285  Biso   1.000  H
  H32      1.0000 0.27087  0.55570  0.39858  Biso   1.000  H
  H33      1.0000 0.78458  0.55570  0.39858  Biso   1.000  H
  H34      1.0000 0.87783  0.16266  0.28982  Biso   1.000  H
  H35      1.0000 0.64839  0.16266  0.28982  Biso   1.000  H
  H36      1.0000 0.27087  0.55570  0.91229  Biso   1.000  H
  H37      1.0000 0.64839  0.16266  0.00554  Biso   1.000  H
  H38      1.0000 0.55514  0.27143  0.39858  Biso   1.000  H
  H39      1.0000 0.16433  0.16489  0.77218  Biso   1.000  H
  H40      1.0000 0.78850  0.26920  0.68338  Biso   1.000  H
  H41      1.0000 0.16433  0.16489  0.00501  Biso   1.000  H
  H42      1.0000 0.26864  0.78906  0.39635  Biso   1.000  H
  H43      1.0000 0.27087  0.27143  0.68285  Biso   1.000  H
  H44      1.0000 0.27087  0.27143  0.91229  Biso   1.000  H
  H45      1.0000 0.16433  0.64503  0.00501  Biso   1.000  H
  H46      1.0000 0.16433  0.87786  0.77218  Biso   1.000  H
  H47      1.0000 0.16433  0.87786  0.29204  Biso   1.000  H
  H48      1.0000 0.87783  0.16266  0.77610  Biso   1.000  H
