data_image0
_cell_length_a       18.2486
_cell_length_b       18.2486
_cell_length_c       18.2486
_cell_angle_alpha    60
_cell_angle_beta     60
_cell_angle_gamma    60

_symmetry_space_group_name_H-M    "P 1"
_symmetry_int_tables_number       1

loop_
  _symmetry_equiv_pos_as_xyz
  'x, y, z'

loop_
  _atom_site_label
  _atom_site_occupancy
  _atom_site_fract_x
  _atom_site_fract_y
  _atom_site_fract_z
  _atom_site_thermal_displace_type
  _atom_site_B_iso_or_equiv
  _atom_site_type_symbol
  C1       1.0000 0.11962  0.29346  0.29346  Biso   1.000  C
  C2       1.0000 0.70654  0.88038  0.70654  Biso   1.000  C
  C3       1.0000 0.29346  0.29346  0.11962  Biso   1.000  C
  C4       1.0000 0.29346  0.29346  0.29346  Biso   1.000  C
  C5       1.0000 0.88038  0.70654  0.70654  Biso   1.000  C
  C6       1.0000 0.29346  0.11962  0.29346  Biso   1.000  C
  C7       1.0000 0.70654  0.70654  0.88038  Biso   1.000  C
  C8       1.0000 0.70654  0.70654  0.70654  Biso   1.000  C
  C9       1.0000 0.15060  0.45640  0.45640  Biso   1.000  C
  C10      1.0000 0.84940  0.54360  0.06340  Biso   1.000  C
  C11      1.0000 0.45640  0.93660  0.45640  Biso   1.000  C
  C12      1.0000 0.54360  0.84940  0.06340  Biso   1.000  C
  C13      1.0000 0.84940  0.54360  0.54360  Biso   1.000  C
  C14      1.0000 0.45640  0.15060  0.93660  Biso   1.000  C
  C15      1.0000 0.45640  0.93660  0.15060  Biso   1.000  C
  C16      1.0000 0.06340  0.54360  0.54360  Biso   1.000  C
  C17      1.0000 0.45640  0.15060  0.45640  Biso   1.000  C
  C18      1.0000 0.93660  0.45640  0.45640  Biso   1.000  C
  C19      1.0000 0.93660  0.15060  0.45640  Biso   1.000  C
  C20      1.0000 0.45640  0.45640  0.15060  Biso   1.000  C
  C21      1.0000 0.06340  0.84940  0.54360  Biso   1.000  C
  C22      1.0000 0.06340  0.54360  0.84940  Biso   1.000  C
  C23      1.0000 0.54360  0.06340  0.84940  Biso   1.000  C
  C24      1.0000 0.54360  0.84940  0.54360  Biso   1.000  C
  C25      1.0000 0.15060  0.93660  0.45640  Biso   1.000  C
  C26      1.0000 0.54360  0.06340  0.54360  Biso   1.000  C
  C27      1.0000 0.93660  0.45640  0.15060  Biso   1.000  C
  C28      1.0000 0.84940  0.06340  0.54360  Biso   1.000  C
  C29      1.0000 0.45640  0.45640  0.93660  Biso   1.000  C
  C30      1.0000 0.54360  0.54360  0.06340  Biso   1.000  C
  C31      1.0000 0.15060  0.45640  0.93660  Biso   1.000  C
  C32      1.0000 0.54360  0.54360  0.84940  Biso   1.000  C
  C33      1.0000 0.89030  0.60970  0.60970  Biso   1.000  C
  C34      1.0000 0.55390  0.55390  0.94610  Biso   1.000  C
  C35      1.0000 0.03650  0.91130  0.52610  Biso   1.000  C
  C36      1.0000 0.47390  0.96350  0.08870  Biso   1.000  C
  C37      1.0000 0.91130  0.52610  0.03650  Biso   1.000  C
  C38      1.0000 0.47390  0.47390  0.08870  Biso   1.000  C
  C39      1.0000 0.96350  0.08870  0.47390  Biso   1.000  C
  C40      1.0000 0.39030  0.10970  0.39030  Biso   1.000  C
  C41      1.0000 0.44610  0.05390  0.44610  Biso   1.000  C
  C42      1.0000 0.52610  0.52610  0.03650  Biso   1.000  C
  C43      1.0000 0.52610  0.91130  0.03650  Biso   1.000  C
  C44      1.0000 0.10970  0.10970  0.39030  Biso   1.000  C
  C45      1.0000 0.05390  0.44610  0.44610  Biso   1.000  C
  C46      1.0000 0.55390  0.94610  0.55390  Biso   1.000  C
  C47      1.0000 0.44610  0.05390  0.05390  Biso   1.000  C
  C48      1.0000 0.94610  0.55390  0.55390  Biso   1.000  C
  C49      1.0000 0.94610  0.55390  0.94610  Biso   1.000  C
  C50      1.0000 0.39030  0.39030  0.10970  Biso   1.000  C
  C51      1.0000 0.03650  0.52610  0.52610  Biso   1.000  C
  C52      1.0000 0.08870  0.47390  0.96350  Biso   1.000  C
  C53      1.0000 0.47390  0.96350  0.47390  Biso   1.000  C
  C54      1.0000 0.47390  0.47390  0.96350  Biso   1.000  C
  C55      1.0000 0.60970  0.89030  0.60970  Biso   1.000  C
  C56      1.0000 0.94610  0.94610  0.55390  Biso   1.000  C
  C57      1.0000 0.05390  0.05390  0.44610  Biso   1.000  C
  C58      1.0000 0.39030  0.10970  0.10970  Biso   1.000  C
  C59      1.0000 0.03650  0.52610  0.91130  Biso   1.000  C
  C60      1.0000 0.44610  0.44610  0.05390  Biso   1.000  C
  C61      1.0000 0.10970  0.39030  0.39030  Biso   1.000  C
  C62      1.0000 0.89030  0.89030  0.60970  Biso   1.000  C
  C63      1.0000 0.60970  0.89030  0.89030  Biso   1.000  C
  C64      1.0000 0.96350  0.47390  0.47390  Biso   1.000  C
  C65      1.0000 0.89030  0.60970  0.89030  Biso   1.000  C
  C66      1.0000 0.08870  0.47390  0.47390  Biso   1.000  C
  C67      1.0000 0.91130  0.52610  0.52610  Biso   1.000  C
  C68      1.0000 0.47390  0.08870  0.47390  Biso   1.000  C
  C69      1.0000 0.47390  0.08870  0.96350  Biso   1.000  C
  C70      1.0000 0.08870  0.96350  0.47390  Biso   1.000  C
  C71      1.0000 0.10970  0.39030  0.10970  Biso   1.000  C
  C72      1.0000 0.96350  0.47390  0.08870  Biso   1.000  C
  C73      1.0000 0.52610  0.52610  0.91130  Biso   1.000  C
  C74      1.0000 0.60970  0.60970  0.89030  Biso   1.000  C
  C75      1.0000 0.52610  0.91130  0.52610  Biso   1.000  C
  C76      1.0000 0.91130  0.03650  0.52610  Biso   1.000  C
  C77      1.0000 0.52610  0.03650  0.91130  Biso   1.000  C
  C78      1.0000 0.05390  0.44610  0.05390  Biso   1.000  C
  C79      1.0000 0.55390  0.94610  0.94610  Biso   1.000  C
  C80      1.0000 0.52610  0.03650  0.52610  Biso   1.000  C
  C81      1.0000 0.63380  0.80300  0.92940  Biso   1.000  C
  C82      1.0000 0.07060  0.19700  0.36620  Biso   1.000  C
  C83      1.0000 0.80300  0.63380  0.63380  Biso   1.000  C
  C84      1.0000 0.80300  0.92940  0.63380  Biso   1.000  C
  C85      1.0000 0.36620  0.07060  0.19700  Biso   1.000  C
  C86      1.0000 0.07060  0.36620  0.19700  Biso   1.000  C
  C87      1.0000 0.63380  0.92940  0.63380  Biso   1.000  C
  C88      1.0000 0.63380  0.80300  0.63380  Biso   1.000  C
  C89      1.0000 0.36620  0.36620  0.19700  Biso   1.000  C
  C90      1.0000 0.36620  0.07060  0.36620  Biso   1.000  C
  C91      1.0000 0.75000  0.75000  0.75000  Biso   1.000  C
  C92      1.0000 0.80300  0.63380  0.92940  Biso   1.000  C
  C93      1.0000 0.92940  0.80300  0.63380  Biso   1.000  C
  C94      1.0000 0.36620  0.19700  0.36620  Biso   1.000  C
  C95      1.0000 0.63380  0.63380  0.80300  Biso   1.000  C
  C96      1.0000 0.19700  0.36620  0.07060  Biso   1.000  C
  C97      1.0000 0.63380  0.63380  0.92940  Biso   1.000  C
  C98      1.0000 0.36620  0.36620  0.07060  Biso   1.000  C
  C99      1.0000 0.63380  0.92940  0.80300  Biso   1.000  C
  C100     1.0000 0.19700  0.07060  0.36620  Biso   1.000  C
  C101     1.0000 0.36620  0.19700  0.07060  Biso   1.000  C
  C102     1.0000 0.92940  0.63380  0.80300  Biso   1.000  C
  C103     1.0000 0.25000  0.25000  0.25000  Biso   1.000  C
  C104     1.0000 0.19700  0.36620  0.36620  Biso   1.000  C
  C105     1.0000 0.92940  0.63380  0.63380  Biso   1.000  C
  C106     1.0000 0.07060  0.36620  0.36620  Biso   1.000  C
  O1       1.0000 0.10528  0.92180  0.06675  Biso   1.000  O
  O2       1.0000 0.10528  0.92180  0.89462  Biso   1.000  O
  O3       1.0000 0.10528  0.74966  0.06675  Biso   1.000  O
  O4       1.0000 0.93314  0.92180  0.06675  Biso   1.000  O
  O5       1.0000 0.51386  0.33038  0.47533  Biso   1.000  O
  O6       1.0000 0.51386  0.33038  0.64747  Biso   1.000  O
  O7       1.0000 0.68599  0.33038  0.47533  Biso   1.000  O
  O8       1.0000 0.51386  0.50252  0.47533  Biso   1.000  O
  O9       1.0000 0.26485  0.08137  0.93172  Biso   1.000  O
  O10      1.0000 0.26485  0.08137  0.69981  Biso   1.000  O
  O11      1.0000 0.97024  0.55485  0.22633  Biso   1.000  O
  O12      1.0000 0.73833  0.78676  0.22633  Biso   1.000  O
  O13      1.0000 0.26485  0.78676  0.69981  Biso   1.000  O
  O14      1.0000 0.26485  0.55485  0.93172  Biso   1.000  O
  O15      1.0000 0.97024  0.08137  0.22633  Biso   1.000  O
  O16      1.0000 0.73833  0.08137  0.22633  Biso   1.000  O
  O17      1.0000 0.26485  0.55485  0.22633  Biso   1.000  O
  O18      1.0000 0.26485  0.78676  0.22633  Biso   1.000  O
  O19      1.0000 0.97024  0.08137  0.69981  Biso   1.000  O
  O20      1.0000 0.73833  0.08137  0.93172  Biso   1.000  O
  O21      1.0000 0.35428  0.17080  0.61037  Biso   1.000  O
  O22      1.0000 0.35428  0.17080  0.84228  Biso   1.000  O
  O23      1.0000 0.88080  0.46542  0.31576  Biso   1.000  O
  O24      1.0000 0.64890  0.69733  0.31576  Biso   1.000  O
  O25      1.0000 0.64890  0.17080  0.84228  Biso   1.000  O
  O26      1.0000 0.88080  0.17080  0.61037  Biso   1.000  O
  O27      1.0000 0.35428  0.46542  0.31576  Biso   1.000  O
  O28      1.0000 0.35428  0.69733  0.31576  Biso   1.000  O
  O29      1.0000 0.88080  0.17080  0.31576  Biso   1.000  O
  O30      1.0000 0.64890  0.17080  0.31576  Biso   1.000  O
  O31      1.0000 0.35428  0.46542  0.84228  Biso   1.000  O
  O32      1.0000 0.35428  0.69733  0.61037  Biso   1.000  O
  O33      1.0000 0.28355  0.10007  0.86791  Biso   1.000  O
  O34      1.0000 0.28355  0.10007  0.72622  Biso   1.000  O
  O35      1.0000 0.90643  0.58127  0.24503  Biso   1.000  O
  O36      1.0000 0.76474  0.72295  0.24503  Biso   1.000  O
  O37      1.0000 0.28355  0.72295  0.72622  Biso   1.000  O
  O38      1.0000 0.28355  0.58127  0.86791  Biso   1.000  O
  O39      1.0000 0.90643  0.10007  0.24503  Biso   1.000  O
  O40      1.0000 0.76474  0.10007  0.24503  Biso   1.000  O
  O41      1.0000 0.28355  0.58127  0.24503  Biso   1.000  O
  O42      1.0000 0.28355  0.72295  0.24503  Biso   1.000  O
  O43      1.0000 0.90643  0.10007  0.72622  Biso   1.000  O
  O44      1.0000 0.76474  0.10007  0.86791  Biso   1.000  O
  O45      1.0000 0.33558  0.15211  0.67418  Biso   1.000  O
  O46      1.0000 0.33558  0.15211  0.81587  Biso   1.000  O
  O47      1.0000 0.85439  0.52923  0.29706  Biso   1.000  O
  O48      1.0000 0.71271  0.67091  0.29706  Biso   1.000  O
  O49      1.0000 0.71271  0.15211  0.81587  Biso   1.000  O
  O50      1.0000 0.85439  0.15211  0.67418  Biso   1.000  O
  O51      1.0000 0.33558  0.52923  0.29706  Biso   1.000  O
  O52      1.0000 0.33558  0.67091  0.29706  Biso   1.000  O
  O53      1.0000 0.85439  0.15211  0.29706  Biso   1.000  O
  O54      1.0000 0.71271  0.15211  0.29706  Biso   1.000  O
  O55      1.0000 0.33558  0.52923  0.81587  Biso   1.000  O
  O56      1.0000 0.33558  0.67091  0.67418  Biso   1.000  O
  O57      1.0000 0.20025  0.01677  0.88571  Biso   1.000  O
  O58      1.0000 0.25634  0.07286  0.82962  Biso   1.000  O
  O59      1.0000 0.92423  0.74076  0.16173  Biso   1.000  O
  O60      1.0000 0.86814  0.68466  0.21782  Biso   1.000  O
  O61      1.0000 0.20025  0.74076  0.88571  Biso   1.000  O
  O62      1.0000 0.25634  0.68466  0.82962  Biso   1.000  O
  O63      1.0000 0.92423  0.01677  0.16173  Biso   1.000  O
  O64      1.0000 0.86814  0.07286  0.21782  Biso   1.000  O
  O65      1.0000 0.20025  0.74076  0.16173  Biso   1.000  O
  O66      1.0000 0.25634  0.68466  0.21782  Biso   1.000  O
  O67      1.0000 0.92423  0.01677  0.88571  Biso   1.000  O
  O68      1.0000 0.86814  0.07286  0.82962  Biso   1.000  O
  O69      1.0000 0.41888  0.23541  0.65638  Biso   1.000  O
  O70      1.0000 0.36279  0.17931  0.71247  Biso   1.000  O
  O71      1.0000 0.69490  0.51142  0.38036  Biso   1.000  O
  O72      1.0000 0.75099  0.56751  0.32427  Biso   1.000  O
  O73      1.0000 0.69490  0.23541  0.65638  Biso   1.000  O
  O74      1.0000 0.75099  0.17931  0.71247  Biso   1.000  O
  O75      1.0000 0.41888  0.51142  0.38036  Biso   1.000  O
  O76      1.0000 0.36279  0.56751  0.32427  Biso   1.000  O
  O77      1.0000 0.69490  0.23541  0.38036  Biso   1.000  O
  O78      1.0000 0.75099  0.17931  0.32427  Biso   1.000  O
  O79      1.0000 0.41888  0.51142  0.65638  Biso   1.000  O
  O80      1.0000 0.36279  0.56751  0.71247  Biso   1.000  O
  O81      1.0000 0.06224  0.87876  0.02372  Biso   1.000  O
  O82      1.0000 0.55689  0.37341  0.51837  Biso   1.000  O
  O83      1.0000 0.17710  0.99362  0.97178  Biso   1.000  O
  O84      1.0000 0.17710  0.99362  0.84594  Biso   1.000  O
  O85      1.0000 0.01030  0.70099  0.13858  Biso   1.000  O
  O86      1.0000 0.88446  0.82683  0.13858  Biso   1.000  O
  O87      1.0000 0.17710  0.82683  0.84594  Biso   1.000  O
  O88      1.0000 0.17710  0.70099  0.97178  Biso   1.000  O
  O89      1.0000 0.01030  0.99362  0.13858  Biso   1.000  O
  O90      1.0000 0.88446  0.99362  0.13858  Biso   1.000  O
  O91      1.0000 0.17710  0.70099  0.13858  Biso   1.000  O
  O92      1.0000 0.17710  0.82683  0.13858  Biso   1.000  O
  O93      1.0000 0.01030  0.99362  0.84594  Biso   1.000  O
  O94      1.0000 0.88446  0.99362  0.97178  Biso   1.000  O
  O95      1.0000 0.44203  0.25856  0.57031  Biso   1.000  O
  O96      1.0000 0.44203  0.25856  0.69615  Biso   1.000  O
  O97      1.0000 0.73467  0.42535  0.40351  Biso   1.000  O
  O98      1.0000 0.60883  0.55119  0.40351  Biso   1.000  O
  O99      1.0000 0.60883  0.25856  0.69615  Biso   1.000  O
  O100     1.0000 0.73467  0.25856  0.57031  Biso   1.000  O
  O101     1.0000 0.44203  0.42535  0.40351  Biso   1.000  O
  O102     1.0000 0.44203  0.55119  0.40351  Biso   1.000  O
  O103     1.0000 0.73467  0.25856  0.40351  Biso   1.000  O
  O104     1.0000 0.60883  0.25856  0.40351  Biso   1.000  O
  O105     1.0000 0.44203  0.42535  0.69615  Biso   1.000  O
  O106     1.0000 0.44203  0.55119  0.57031  Biso   1.000  O
