data_image0
_cell_length_a       18.2486
_cell_length_b       18.2486
_cell_length_c       18.2486
_cell_angle_alpha    60
_cell_angle_beta     60
_cell_angle_gamma    60

_symmetry_space_group_name_H-M    "P 1"
_symmetry_int_tables_number       1

loop_
  _symmetry_equiv_pos_as_xyz
  'x, y, z'

loop_
  _atom_site_label
  _atom_site_occupancy
  _atom_site_fract_x
  _atom_site_fract_y
  _atom_site_fract_z
  _atom_site_thermal_displace_type
  _atom_site_B_iso_or_equiv
  _atom_site_type_symbol
  C1       1.0000 0.11962  0.29346  0.29346  Biso   1.000  C
  C2       1.0000 0.70654  0.88038  0.70654  Biso   1.000  C
  C3       1.0000 0.29346  0.29346  0.11962  Biso   1.000  C
  C4       1.0000 0.29346  0.29346  0.29346  Biso   1.000  C
  C5       1.0000 0.88038  0.70654  0.70654  Biso   1.000  C
  C6       1.0000 0.29346  0.11962  0.29346  Biso   1.000  C
  C7       1.0000 0.70654  0.70654  0.88038  Biso   1.000  C
  C8       1.0000 0.70654  0.70654  0.70654  Biso   1.000  C
  C9       1.0000 0.15060  0.45640  0.45640  Biso   1.000  C
  C10      1.0000 0.84940  0.54360  0.06340  Biso   1.000  C
  C11      1.0000 0.45640  0.93660  0.45640  Biso   1.000  C
  C12      1.0000 0.54360  0.84940  0.06340  Biso   1.000  C
  C13      1.0000 0.84940  0.54360  0.54360  Biso   1.000  C
  C14      1.0000 0.45640  0.15060  0.93660  Biso   1.000  C
  C15      1.0000 0.45640  0.93660  0.15060  Biso   1.000  C
  C16      1.0000 0.06340  0.54360  0.54360  Biso   1.000  C
  C17      1.0000 0.45640  0.15060  0.45640  Biso   1.000  C
  C18      1.0000 0.93660  0.45640  0.45640  Biso   1.000  C
  C19      1.0000 0.93660  0.15060  0.45640  Biso   1.000  C
  C20      1.0000 0.45640  0.45640  0.15060  Biso   1.000  C
  C21      1.0000 0.06340  0.84940  0.54360  Biso   1.000  C
  C22      1.0000 0.06340  0.54360  0.84940  Biso   1.000  C
  C23      1.0000 0.54360  0.06340  0.84940  Biso   1.000  C
  C24      1.0000 0.54360  0.84940  0.54360  Biso   1.000  C
  C25      1.0000 0.15060  0.93660  0.45640  Biso   1.000  C
  C26      1.0000 0.54360  0.06340  0.54360  Biso   1.000  C
  C27      1.0000 0.93660  0.45640  0.15060  Biso   1.000  C
  C28      1.0000 0.84940  0.06340  0.54360  Biso   1.000  C
  C29      1.0000 0.45640  0.45640  0.93660  Biso   1.000  C
  C30      1.0000 0.54360  0.54360  0.06340  Biso   1.000  C
  C31      1.0000 0.15060  0.45640  0.93660  Biso   1.000  C
  C32      1.0000 0.54360  0.54360  0.84940  Biso   1.000  C
  C33      1.0000 0.89030  0.60970  0.60970  Biso   1.000  C
  C34      1.0000 0.55390  0.55390  0.94610  Biso   1.000  C
  C35      1.0000 0.03650  0.91130  0.52610  Biso   1.000  C
  C36      1.0000 0.47390  0.96350  0.08870  Biso   1.000  C
  C37      1.0000 0.91130  0.52610  0.03650  Biso   1.000  C
  C38      1.0000 0.47390  0.47390  0.08870  Biso   1.000  C
  C39      1.0000 0.96350  0.08870  0.47390  Biso   1.000  C
  C40      1.0000 0.39030  0.10970  0.39030  Biso   1.000  C
  C41      1.0000 0.44610  0.05390  0.44610  Biso   1.000  C
  C42      1.0000 0.52610  0.52610  0.03650  Biso   1.000  C
  C43      1.0000 0.52610  0.91130  0.03650  Biso   1.000  C
  C44      1.0000 0.10970  0.10970  0.39030  Biso   1.000  C
  C45      1.0000 0.05390  0.44610  0.44610  Biso   1.000  C
  C46      1.0000 0.55390  0.94610  0.55390  Biso   1.000  C
  C47      1.0000 0.44610  0.05390  0.05390  Biso   1.000  C
  C48      1.0000 0.94610  0.55390  0.55390  Biso   1.000  C
  C49      1.0000 0.94610  0.55390  0.94610  Biso   1.000  C
  C50      1.0000 0.39030  0.39030  0.10970  Biso   1.000  C
  C51      1.0000 0.03650  0.52610  0.52610  Biso   1.000  C
  C52      1.0000 0.08870  0.47390  0.96350  Biso   1.000  C
  C53      1.0000 0.47390  0.96350  0.47390  Biso   1.000  C
  C54      1.0000 0.47390  0.47390  0.96350  Biso   1.000  C
  C55      1.0000 0.60970  0.89030  0.60970  Biso   1.000  C
  C56      1.0000 0.94610  0.94610  0.55390  Biso   1.000  C
  C57      1.0000 0.05390  0.05390  0.44610  Biso   1.000  C
  C58      1.0000 0.39030  0.10970  0.10970  Biso   1.000  C
  C59      1.0000 0.03650  0.52610  0.91130  Biso   1.000  C
  C60      1.0000 0.44610  0.44610  0.05390  Biso   1.000  C
  C61      1.0000 0.10970  0.39030  0.39030  Biso   1.000  C
  C62      1.0000 0.89030  0.89030  0.60970  Biso   1.000  C
  C63      1.0000 0.60970  0.89030  0.89030  Biso   1.000  C
  C64      1.0000 0.96350  0.47390  0.47390  Biso   1.000  C
  C65      1.0000 0.89030  0.60970  0.89030  Biso   1.000  C
  C66      1.0000 0.08870  0.47390  0.47390  Biso   1.000  C
  C67      1.0000 0.91130  0.52610  0.52610  Biso   1.000  C
  C68      1.0000 0.47390  0.08870  0.47390  Biso   1.000  C
  C69      1.0000 0.47390  0.08870  0.96350  Biso   1.000  C
  C70      1.0000 0.08870  0.96350  0.47390  Biso   1.000  C
  C71      1.0000 0.10970  0.39030  0.10970  Biso   1.000  C
  C72      1.0000 0.96350  0.47390  0.08870  Biso   1.000  C
  C73      1.0000 0.52610  0.52610  0.91130  Biso   1.000  C
  C74      1.0000 0.60970  0.60970  0.89030  Biso   1.000  C
  C75      1.0000 0.52610  0.91130  0.52610  Biso   1.000  C
  C76      1.0000 0.91130  0.03650  0.52610  Biso   1.000  C
  C77      1.0000 0.52610  0.03650  0.91130  Biso   1.000  C
  C78      1.0000 0.05390  0.44610  0.05390  Biso   1.000  C
  C79      1.0000 0.55390  0.94610  0.94610  Biso   1.000  C
  C80      1.0000 0.52610  0.03650  0.52610  Biso   1.000  C
  C81      1.0000 0.63380  0.80300  0.92940  Biso   1.000  C
  C82      1.0000 0.07060  0.19700  0.36620  Biso   1.000  C
  C83      1.0000 0.80300  0.63380  0.63380  Biso   1.000  C
  C84      1.0000 0.80300  0.92940  0.63380  Biso   1.000  C
  C85      1.0000 0.36620  0.07060  0.19700  Biso   1.000  C
  C86      1.0000 0.07060  0.36620  0.19700  Biso   1.000  C
  C87      1.0000 0.63380  0.92940  0.63380  Biso   1.000  C
  C88      1.0000 0.63380  0.80300  0.63380  Biso   1.000  C
  C89      1.0000 0.36620  0.36620  0.19700  Biso   1.000  C
  C90      1.0000 0.36620  0.07060  0.36620  Biso   1.000  C
  C91      1.0000 0.75000  0.75000  0.75000  Biso   1.000  C
  C92      1.0000 0.80300  0.63380  0.92940  Biso   1.000  C
  C93      1.0000 0.92940  0.80300  0.63380  Biso   1.000  C
  C94      1.0000 0.36620  0.19700  0.36620  Biso   1.000  C
  C95      1.0000 0.63380  0.63380  0.80300  Biso   1.000  C
  C96      1.0000 0.19700  0.36620  0.07060  Biso   1.000  C
  C97      1.0000 0.63380  0.63380  0.92940  Biso   1.000  C
  C98      1.0000 0.36620  0.36620  0.07060  Biso   1.000  C
  C99      1.0000 0.63380  0.92940  0.80300  Biso   1.000  C
  C100     1.0000 0.19700  0.07060  0.36620  Biso   1.000  C
  C101     1.0000 0.36620  0.19700  0.07060  Biso   1.000  C
  C102     1.0000 0.92940  0.63380  0.80300  Biso   1.000  C
  C103     1.0000 0.25000  0.25000  0.25000  Biso   1.000  C
  C104     1.0000 0.19700  0.36620  0.36620  Biso   1.000  C
  C105     1.0000 0.92940  0.63380  0.63380  Biso   1.000  C
  C106     1.0000 0.07060  0.36620  0.36620  Biso   1.000  C
  O1       1.0000 0.52173  0.16423  0.65140  Biso   1.000  O
  O2       1.0000 0.52173  0.33909  0.65140  Biso   1.000  O
  O3       1.0000 0.34687  0.33909  0.65140  Biso   1.000  O
  O4       1.0000 0.52173  0.33909  0.47655  Biso   1.000  O
  O5       1.0000 0.94438  0.74830  0.06062  Biso   1.000  O
  O6       1.0000 0.94438  0.92316  0.06062  Biso   1.000  O
  O7       1.0000 0.11924  0.74830  0.06062  Biso   1.000  O
  O8       1.0000 0.94438  0.74830  0.23548  Biso   1.000  O
  O9       1.0000 0.38328  0.97755  0.81397  Biso   1.000  O
  O10      1.0000 0.68429  0.50165  0.51296  Biso   1.000  O
  O11      1.0000 0.16020  0.20064  0.81397  Biso   1.000  O
  O12      1.0000 0.68429  0.50165  0.28987  Biso   1.000  O
  O13      1.0000 0.16020  0.50165  0.51296  Biso   1.000  O
  O14      1.0000 0.68429  0.20064  0.81397  Biso   1.000  O
  O15      1.0000 0.38328  0.50165  0.28987  Biso   1.000  O
  O16      1.0000 0.68429  0.97755  0.81397  Biso   1.000  O
  O17      1.0000 0.68429  0.20064  0.28987  Biso   1.000  O
  O18      1.0000 0.38329  0.50165  0.81397  Biso   1.000  O
  O19      1.0000 0.68429  0.97755  0.51296  Biso   1.000  O
  O20      1.0000 0.16020  0.50165  0.81397  Biso   1.000  O
  O21      1.0000 0.08283  0.58574  0.89806  Biso   1.000  O
  O22      1.0000 0.78182  0.10984  0.19906  Biso   1.000  O
  O23      1.0000 0.30592  0.58574  0.89806  Biso   1.000  O
  O24      1.0000 0.78182  0.88675  0.42215  Biso   1.000  O
  O25      1.0000 0.30592  0.58574  0.19906  Biso   1.000  O
  O26      1.0000 0.78182  0.10984  0.89806  Biso   1.000  O
  O27      1.0000 0.08283  0.58574  0.42215  Biso   1.000  O
  O28      1.0000 0.78182  0.88675  0.89806  Biso   1.000  O
  O29      1.0000 0.78182  0.58574  0.42215  Biso   1.000  O
  O30      1.0000 0.08283  0.10984  0.89806  Biso   1.000  O
  O31      1.0000 0.78182  0.58574  0.19906  Biso   1.000  O
  O32      1.0000 0.30592  0.88675  0.89806  Biso   1.000  O
  O33      1.0000 0.31965  0.00428  0.83242  Biso   1.000  O
  O34      1.0000 0.70275  0.52010  0.44932  Biso   1.000  O
  O35      1.0000 0.18692  0.13701  0.83242  Biso   1.000  O
  O36      1.0000 0.70275  0.52010  0.31660  Biso   1.000  O
  O37      1.0000 0.18692  0.52010  0.44933  Biso   1.000  O
  O38      1.0000 0.70275  0.13701  0.83242  Biso   1.000  O
  O39      1.0000 0.31965  0.52010  0.31660  Biso   1.000  O
  O40      1.0000 0.70275  0.00428  0.83242  Biso   1.000  O
  O41      1.0000 0.70275  0.13701  0.31660  Biso   1.000  O
  O42      1.0000 0.31965  0.52010  0.83242  Biso   1.000  O
  O43      1.0000 0.70275  0.00428  0.44932  Biso   1.000  O
  O44      1.0000 0.18692  0.52010  0.83242  Biso   1.000  O
  O45      1.0000 0.14646  0.56728  0.87960  Biso   1.000  O
  O46      1.0000 0.76337  0.08311  0.26270  Biso   1.000  O
  O47      1.0000 0.27919  0.56728  0.87960  Biso   1.000  O
  O48      1.0000 0.76337  0.95038  0.39543  Biso   1.000  O
  O49      1.0000 0.27919  0.56728  0.26270  Biso   1.000  O
  O50      1.0000 0.76337  0.08311  0.87960  Biso   1.000  O
  O51      1.0000 0.14646  0.56728  0.39543  Biso   1.000  O
  O52      1.0000 0.76337  0.95038  0.87960  Biso   1.000  O
  O53      1.0000 0.76337  0.56728  0.39543  Biso   1.000  O
  O54      1.0000 0.14646  0.08311  0.87960  Biso   1.000  O
  O55      1.0000 0.76337  0.56728  0.26270  Biso   1.000  O
  O56      1.0000 0.27919  0.95038  0.87960  Biso   1.000  O
  O57      1.0000 0.33863  0.15598  0.74708  Biso   1.000  O
  O58      1.0000 0.28043  0.09779  0.80528  Biso   1.000  O
  O59      1.0000 0.61741  0.43476  0.46830  Biso   1.000  O
  O60      1.0000 0.67561  0.49296  0.41010  Biso   1.000  O
  O61      1.0000 0.33863  0.43476  0.46830  Biso   1.000  O
  O62      1.0000 0.28043  0.49296  0.41010  Biso   1.000  O
  O63      1.0000 0.61741  0.15598  0.74708  Biso   1.000  O
  O64      1.0000 0.67561  0.09779  0.80528  Biso   1.000  O
  O65      1.0000 0.61741  0.15598  0.46830  Biso   1.000  O
  O66      1.0000 0.67561  0.09779  0.41010  Biso   1.000  O
  O67      1.0000 0.33863  0.43476  0.74708  Biso   1.000  O
  O68      1.0000 0.28043  0.49296  0.80528  Biso   1.000  O
  O69      1.0000 0.12749  0.65262  0.96494  Biso   1.000  O
  O70      1.0000 0.18568  0.59443  0.90674  Biso   1.000  O
  O71      1.0000 0.84870  0.93140  0.24372  Biso   1.000  O
  O72      1.0000 0.79051  0.98960  0.30192  Biso   1.000  O
  O73      1.0000 0.12749  0.65262  0.24372  Biso   1.000  O
  O74      1.0000 0.18568  0.59443  0.30192  Biso   1.000  O
  O75      1.0000 0.84870  0.93140  0.96494  Biso   1.000  O
  O76      1.0000 0.79051  0.98960  0.90674  Biso   1.000  O
  O77      1.0000 0.84871  0.65262  0.24372  Biso   1.000  O
  O78      1.0000 0.79051  0.59443  0.30192  Biso   1.000  O
  O79      1.0000 0.12749  0.93140  0.96494  Biso   1.000  O
  O80      1.0000 0.18568  0.98960  0.90674  Biso   1.000  O
  O81      1.0000 0.47802  0.29537  0.60769  Biso   1.000  O
  O82      1.0000 0.98810  0.79201  0.10433  Biso   1.000  O
  O83      1.0000 0.42275  0.11652  0.72475  Biso   1.000  O
  O84      1.0000 0.59508  0.41244  0.55242  Biso   1.000  O
  O85      1.0000 0.29916  0.24010  0.72475  Biso   1.000  O
  O86      1.0000 0.59508  0.41244  0.42884  Biso   1.000  O
  O87      1.0000 0.29916  0.41244  0.55242  Biso   1.000  O
  O88      1.0000 0.59508  0.24010  0.72475  Biso   1.000  O
  O89      1.0000 0.42275  0.41244  0.42884  Biso   1.000  O
  O90      1.0000 0.59508  0.11652  0.72475  Biso   1.000  O
  O91      1.0000 0.59508  0.24010  0.42884  Biso   1.000  O
  O92      1.0000 0.42275  0.41244  0.72475  Biso   1.000  O
  O93      1.0000 0.59508  0.11652  0.55242  Biso   1.000  O
  O94      1.0000 0.29916  0.41244  0.72475  Biso   1.000  O
  O95      1.0000 0.04336  0.67495  0.98727  Biso   1.000  O
  O96      1.0000 0.87103  0.97087  0.15960  Biso   1.000  O
  O97      1.0000 0.16695  0.67495  0.98727  Biso   1.000  O
  O98      1.0000 0.87103  0.84728  0.28319  Biso   1.000  O
  O99      1.0000 0.16695  0.67495  0.15960  Biso   1.000  O
  O100     1.0000 0.87103  0.97087  0.98727  Biso   1.000  O
  O101     1.0000 0.04336  0.67495  0.28319  Biso   1.000  O
  O102     1.0000 0.87103  0.84728  0.98727  Biso   1.000  O
  O103     1.0000 0.87103  0.67495  0.28319  Biso   1.000  O
  O104     1.0000 0.04336  0.97087  0.98727  Biso   1.000  O
  O105     1.0000 0.87103  0.67495  0.15960  Biso   1.000  O
  O106     1.0000 0.16695  0.84728  0.98727  Biso   1.000  O
