data_image0
_cell_length_a       18.2486
_cell_length_b       18.2486
_cell_length_c       18.2486
_cell_angle_alpha    60
_cell_angle_beta     60
_cell_angle_gamma    60

_symmetry_space_group_name_H-M    "P 1"
_symmetry_int_tables_number       1

loop_
  _symmetry_equiv_pos_as_xyz
  'x, y, z'

loop_
  _atom_site_label
  _atom_site_occupancy
  _atom_site_fract_x
  _atom_site_fract_y
  _atom_site_fract_z
  _atom_site_thermal_displace_type
  _atom_site_B_iso_or_equiv
  _atom_site_type_symbol
  Zn1      1.0000 0.11962  0.29346  0.29346  Biso   1.000  Zn
  Zn2      1.0000 0.70654  0.88038  0.70654  Biso   1.000  Zn
  Zn3      1.0000 0.29346  0.29346  0.11962  Biso   1.000  Zn
  Zn4      1.0000 0.29346  0.29346  0.29346  Biso   1.000  Zn
  Zn5      1.0000 0.88038  0.70654  0.70654  Biso   1.000  Zn
  Zn6      1.0000 0.29346  0.11962  0.29346  Biso   1.000  Zn
  Zn7      1.0000 0.70654  0.70654  0.88038  Biso   1.000  Zn
  Zn8      1.0000 0.70654  0.70654  0.70654  Biso   1.000  Zn
  H1       1.0000 0.15060  0.45640  0.45640  Biso   1.000  H
  H2       1.0000 0.84940  0.54360  0.06340  Biso   1.000  H
  H3       1.0000 0.45640  0.93660  0.45640  Biso   1.000  H
  H4       1.0000 0.54360  0.84940  0.06340  Biso   1.000  H
  H5       1.0000 0.84940  0.54360  0.54360  Biso   1.000  H
  H6       1.0000 0.45640  0.15060  0.93660  Biso   1.000  H
  H7       1.0000 0.45640  0.93660  0.15060  Biso   1.000  H
  H8       1.0000 0.06340  0.54360  0.54360  Biso   1.000  H
  H9       1.0000 0.45640  0.15060  0.45640  Biso   1.000  H
  H10      1.0000 0.93660  0.45640  0.45640  Biso   1.000  H
  H11      1.0000 0.93660  0.15060  0.45640  Biso   1.000  H
  H12      1.0000 0.45640  0.45640  0.15060  Biso   1.000  H
  H13      1.0000 0.06340  0.84940  0.54360  Biso   1.000  H
  H14      1.0000 0.06340  0.54360  0.84940  Biso   1.000  H
  H15      1.0000 0.54360  0.06340  0.84940  Biso   1.000  H
  H16      1.0000 0.54360  0.84940  0.54360  Biso   1.000  H
  H17      1.0000 0.15060  0.93660  0.45640  Biso   1.000  H
  H18      1.0000 0.54360  0.06340  0.54360  Biso   1.000  H
  H19      1.0000 0.93660  0.45640  0.15060  Biso   1.000  H
  H20      1.0000 0.84940  0.06340  0.54360  Biso   1.000  H
  H21      1.0000 0.45640  0.45640  0.93660  Biso   1.000  H
  H22      1.0000 0.54360  0.54360  0.06340  Biso   1.000  H
  H23      1.0000 0.15060  0.45640  0.93660  Biso   1.000  H
  H24      1.0000 0.54360  0.54360  0.84940  Biso   1.000  H
  C1       1.0000 0.89030  0.60970  0.60970  Biso   1.000  C
  C2       1.0000 0.55390  0.55390  0.94610  Biso   1.000  C
  C3       1.0000 0.03650  0.91130  0.52610  Biso   1.000  C
  C4       1.0000 0.47390  0.96350  0.08870  Biso   1.000  C
  C5       1.0000 0.91130  0.52610  0.03650  Biso   1.000  C
  C6       1.0000 0.47390  0.47390  0.08870  Biso   1.000  C
  C7       1.0000 0.96350  0.08870  0.47390  Biso   1.000  C
  C8       1.0000 0.39030  0.10970  0.39030  Biso   1.000  C
  C9       1.0000 0.44610  0.05390  0.44610  Biso   1.000  C
  C10      1.0000 0.52610  0.52610  0.03650  Biso   1.000  C
  C11      1.0000 0.52610  0.91130  0.03650  Biso   1.000  C
  C12      1.0000 0.10970  0.10970  0.39030  Biso   1.000  C
  C13      1.0000 0.05390  0.44610  0.44610  Biso   1.000  C
  C14      1.0000 0.55390  0.94610  0.55390  Biso   1.000  C
  C15      1.0000 0.44610  0.05390  0.05390  Biso   1.000  C
  C16      1.0000 0.94610  0.55390  0.55390  Biso   1.000  C
  C17      1.0000 0.94610  0.55390  0.94610  Biso   1.000  C
  C18      1.0000 0.39030  0.39030  0.10970  Biso   1.000  C
  C19      1.0000 0.03650  0.52610  0.52610  Biso   1.000  C
  C20      1.0000 0.08870  0.47390  0.96350  Biso   1.000  C
  C21      1.0000 0.47390  0.96350  0.47390  Biso   1.000  C
  C22      1.0000 0.47390  0.47390  0.96350  Biso   1.000  C
  C23      1.0000 0.60970  0.89030  0.60970  Biso   1.000  C
  C24      1.0000 0.94610  0.94610  0.55390  Biso   1.000  C
  C25      1.0000 0.05390  0.05390  0.44610  Biso   1.000  C
  C26      1.0000 0.39030  0.10970  0.10970  Biso   1.000  C
  C27      1.0000 0.03650  0.52610  0.91130  Biso   1.000  C
  C28      1.0000 0.44610  0.44610  0.05390  Biso   1.000  C
  C29      1.0000 0.10970  0.39030  0.39030  Biso   1.000  C
  C30      1.0000 0.89030  0.89030  0.60970  Biso   1.000  C
  C31      1.0000 0.60970  0.89030  0.89030  Biso   1.000  C
  C32      1.0000 0.96350  0.47390  0.47390  Biso   1.000  C
  C33      1.0000 0.89030  0.60970  0.89030  Biso   1.000  C
  C34      1.0000 0.08870  0.47390  0.47390  Biso   1.000  C
  C35      1.0000 0.91130  0.52610  0.52610  Biso   1.000  C
  C36      1.0000 0.47390  0.08870  0.47390  Biso   1.000  C
  C37      1.0000 0.47390  0.08870  0.96350  Biso   1.000  C
  C38      1.0000 0.08870  0.96350  0.47390  Biso   1.000  C
  C39      1.0000 0.10970  0.39030  0.10970  Biso   1.000  C
  C40      1.0000 0.96350  0.47390  0.08870  Biso   1.000  C
  C41      1.0000 0.52610  0.52610  0.91130  Biso   1.000  C
  C42      1.0000 0.60970  0.60970  0.89030  Biso   1.000  C
  C43      1.0000 0.52610  0.91130  0.52610  Biso   1.000  C
  C44      1.0000 0.91130  0.03650  0.52610  Biso   1.000  C
  C45      1.0000 0.52610  0.03650  0.91130  Biso   1.000  C
  C46      1.0000 0.05390  0.44610  0.05390  Biso   1.000  C
  C47      1.0000 0.55390  0.94610  0.94610  Biso   1.000  C
  C48      1.0000 0.52610  0.03650  0.52610  Biso   1.000  C
  O1       1.0000 0.63380  0.80300  0.92940  Biso   1.000  O
  O2       1.0000 0.07060  0.19700  0.36620  Biso   1.000  O
  O3       1.0000 0.80300  0.63380  0.63380  Biso   1.000  O
  O4       1.0000 0.80300  0.92940  0.63380  Biso   1.000  O
  O5       1.0000 0.36620  0.07060  0.19700  Biso   1.000  O
  O6       1.0000 0.07060  0.36620  0.19700  Biso   1.000  O
  O7       1.0000 0.63380  0.92940  0.63380  Biso   1.000  O
  O8       1.0000 0.63380  0.80300  0.63380  Biso   1.000  O
  O9       1.0000 0.36620  0.36620  0.19700  Biso   1.000  O
  O10      1.0000 0.36620  0.07060  0.36620  Biso   1.000  O
  O11      1.0000 0.75000  0.75000  0.75000  Biso   1.000  O
  O12      1.0000 0.80300  0.63380  0.92940  Biso   1.000  O
  O13      1.0000 0.92940  0.80300  0.63380  Biso   1.000  O
  O14      1.0000 0.36620  0.19700  0.36620  Biso   1.000  O
  O15      1.0000 0.63380  0.63380  0.80300  Biso   1.000  O
  O16      1.0000 0.19700  0.36620  0.07060  Biso   1.000  O
  O17      1.0000 0.63380  0.63380  0.92940  Biso   1.000  O
  O18      1.0000 0.36620  0.36620  0.07060  Biso   1.000  O
  O19      1.0000 0.63380  0.92940  0.80300  Biso   1.000  O
  O20      1.0000 0.19700  0.07060  0.36620  Biso   1.000  O
  O21      1.0000 0.36620  0.19700  0.07060  Biso   1.000  O
  O22      1.0000 0.92940  0.63380  0.80300  Biso   1.000  O
  O23      1.0000 0.25000  0.25000  0.25000  Biso   1.000  O
  O24      1.0000 0.19700  0.36620  0.36620  Biso   1.000  O
  O25      1.0000 0.92940  0.63380  0.63380  Biso   1.000  O
  O26      1.0000 0.07060  0.36620  0.36620  Biso   1.000  O
  Zn9      1.0000 0.51866  0.16503  0.65256  Biso   1.000  Zn
  Zn10     1.0000 0.51866  0.33943  0.65256  Biso   1.000  Zn
  Zn11     1.0000 0.34425  0.33943  0.65256  Biso   1.000  Zn
  Zn12     1.0000 0.51866  0.33943  0.47816  Biso   1.000  Zn
  Zn13     1.0000 0.93711  0.75034  0.06347  Biso   1.000  Zn
  Zn14     1.0000 0.93711  0.92474  0.06347  Biso   1.000  Zn
  Zn15     1.0000 0.11152  0.75034  0.06347  Biso   1.000  Zn
  Zn16     1.0000 0.93711  0.75034  0.23787  Biso   1.000  Zn
  H25      1.0000 0.38010  0.97924  0.81473  Biso   1.000  H
  H26      1.0000 0.68083  0.50160  0.51400  Biso   1.000  H
  H27      1.0000 0.15846  0.20087  0.81473  Biso   1.000  H
  H28      1.0000 0.68083  0.50160  0.29237  Biso   1.000  H
  H29      1.0000 0.15846  0.50160  0.51400  Biso   1.000  H
  H30      1.0000 0.68083  0.20087  0.81473  Biso   1.000  H
  H31      1.0000 0.38010  0.50160  0.29237  Biso   1.000  H
  H32      1.0000 0.68083  0.97924  0.81473  Biso   1.000  H
  H33      1.0000 0.68083  0.20087  0.29237  Biso   1.000  H
  H34      1.0000 0.38010  0.50160  0.81473  Biso   1.000  H
  H35      1.0000 0.68083  0.97924  0.51400  Biso   1.000  H
  H36      1.0000 0.15846  0.50160  0.81473  Biso   1.000  H
  H37      1.0000 0.07567  0.58817  0.90130  Biso   1.000  H
  H38      1.0000 0.77494  0.11053  0.20203  Biso   1.000  H
  H39      1.0000 0.29731  0.58817  0.90130  Biso   1.000  H
  H40      1.0000 0.77494  0.88890  0.42366  Biso   1.000  H
  H41      1.0000 0.29731  0.58817  0.20203  Biso   1.000  H
  H42      1.0000 0.77494  0.11053  0.90130  Biso   1.000  H
  H43      1.0000 0.07567  0.58817  0.42366  Biso   1.000  H
  H44      1.0000 0.77494  0.88890  0.90130  Biso   1.000  H
  H45      1.0000 0.77494  0.58817  0.42366  Biso   1.000  H
  H46      1.0000 0.07567  0.11053  0.90130  Biso   1.000  H
  H47      1.0000 0.77494  0.58817  0.20203  Biso   1.000  H
  H48      1.0000 0.29731  0.88890  0.90130  Biso   1.000  H
  C49      1.0000 0.31650  0.00610  0.83310  Biso   1.000  C
  C50      1.0000 0.69920  0.51997  0.45040  Biso   1.000  C
  C51      1.0000 0.18532  0.13727  0.83310  Biso   1.000  C
  C52      1.0000 0.69920  0.51997  0.31923  Biso   1.000  C
  C53      1.0000 0.18532  0.51997  0.45040  Biso   1.000  C
  C54      1.0000 0.69920  0.13727  0.83310  Biso   1.000  C
  C55      1.0000 0.31650  0.51997  0.31923  Biso   1.000  C
  C56      1.0000 0.69920  0.00610  0.83310  Biso   1.000  C
  C57      1.0000 0.69920  0.13727  0.31923  Biso   1.000  C
  C58      1.0000 0.31650  0.51997  0.83310  Biso   1.000  C
  C59      1.0000 0.69920  0.00610  0.45040  Biso   1.000  C
  C60      1.0000 0.18533  0.51997  0.83310  Biso   1.000  C
  C61      1.0000 0.13927  0.56980  0.88293  Biso   1.000  C
  C62      1.0000 0.75657  0.08367  0.26563  Biso   1.000  C
  C63      1.0000 0.27044  0.56980  0.88293  Biso   1.000  C
  C64      1.0000 0.75657  0.95250  0.39680  Biso   1.000  C
  C65      1.0000 0.27044  0.56980  0.26563  Biso   1.000  C
  C66      1.0000 0.75657  0.08367  0.88293  Biso   1.000  C
  C67      1.0000 0.13927  0.56980  0.39680  Biso   1.000  C
  C68      1.0000 0.75657  0.95250  0.88293  Biso   1.000  C
  C69      1.0000 0.75657  0.56980  0.39680  Biso   1.000  C
  C70      1.0000 0.13927  0.08367  0.88293  Biso   1.000  C
  C71      1.0000 0.75657  0.56980  0.26563  Biso   1.000  C
  C72      1.0000 0.27044  0.95250  0.88293  Biso   1.000  C
  C73      1.0000 0.33601  0.15679  0.74800  Biso   1.000  C
  C74      1.0000 0.27803  0.09881  0.80598  Biso   1.000  C
  C75      1.0000 0.61410  0.43487  0.46992  Biso   1.000  C
  C76      1.0000 0.67207  0.49285  0.41194  Biso   1.000  C
  C77      1.0000 0.33601  0.43487  0.46992  Biso   1.000  C
  C78      1.0000 0.27803  0.49285  0.41194  Biso   1.000  C
  C79      1.0000 0.61410  0.15679  0.74800  Biso   1.000  C
  C80      1.0000 0.67208  0.09881  0.80598  Biso   1.000  C
  C81      1.0000 0.61410  0.15679  0.46992  Biso   1.000  C
  C82      1.0000 0.67207  0.09881  0.41194  Biso   1.000  C
  C83      1.0000 0.33601  0.43487  0.74800  Biso   1.000  C
  C84      1.0000 0.27803  0.49285  0.80598  Biso   1.000  C
  C85      1.0000 0.11976  0.65490  0.96803  Biso   1.000  C
  C86      1.0000 0.17774  0.59692  0.91005  Biso   1.000  C
  C87      1.0000 0.84167  0.93298  0.24611  Biso   1.000  C
  C88      1.0000 0.78369  0.99096  0.30409  Biso   1.000  C
  C89      1.0000 0.11976  0.65490  0.24611  Biso   1.000  C
  C90      1.0000 0.17774  0.59692  0.30409  Biso   1.000  C
  C91      1.0000 0.84167  0.93298  0.96803  Biso   1.000  C
  C92      1.0000 0.78369  0.99096  0.91005  Biso   1.000  C
  C93      1.0000 0.84167  0.65490  0.24611  Biso   1.000  C
  C94      1.0000 0.78369  0.59692  0.30409  Biso   1.000  C
  C95      1.0000 0.11976  0.93298  0.96803  Biso   1.000  C
  C96      1.0000 0.17774  0.99096  0.91005  Biso   1.000  C
  O27      1.0000 0.47505  0.29583  0.60896  Biso   1.000  O
  O28      1.0000 0.98071  0.79394  0.10707  Biso   1.000  O
  O29      1.0000 0.41982  0.11765  0.72567  Biso   1.000  O
  O30      1.0000 0.59176  0.41254  0.55372  Biso   1.000  O
  O31      1.0000 0.29687  0.24059  0.72567  Biso   1.000  O
  O32      1.0000 0.59176  0.41254  0.43078  Biso   1.000  O
  O33      1.0000 0.29687  0.41254  0.55372  Biso   1.000  O
  O34      1.0000 0.59176  0.24059  0.72567  Biso   1.000  O
  O35      1.0000 0.41982  0.41254  0.43078  Biso   1.000  O
  O36      1.0000 0.59176  0.11765  0.72567  Biso   1.000  O
  O37      1.0000 0.59176  0.24059  0.43078  Biso   1.000  O
  O38      1.0000 0.41982  0.41254  0.72567  Biso   1.000  O
  O39      1.0000 0.59176  0.11765  0.55372  Biso   1.000  O
  O40      1.0000 0.29687  0.41254  0.72567  Biso   1.000  O
  O41      1.0000 0.03595  0.67723  0.99036  Biso   1.000  O
  O42      1.0000 0.86401  0.97212  0.16231  Biso   1.000  O
  O43      1.0000 0.15889  0.67723  0.99036  Biso   1.000  O
  O44      1.0000 0.86401  0.84918  0.28525  Biso   1.000  O
  O45      1.0000 0.15889  0.67723  0.16231  Biso   1.000  O
  O46      1.0000 0.86401  0.97212  0.99036  Biso   1.000  O
  O47      1.0000 0.03595  0.67723  0.28525  Biso   1.000  O
  O48      1.0000 0.86401  0.84918  0.99036  Biso   1.000  O
  O49      1.0000 0.86401  0.67723  0.28525  Biso   1.000  O
  O50      1.0000 0.03595  0.97212  0.99036  Biso   1.000  O
  O51      1.0000 0.86401  0.67723  0.16231  Biso   1.000  O
  O52      1.0000 0.15889  0.84918  0.99036  Biso   1.000  O
