data_image0
_cell_length_a       18.2486
_cell_length_b       18.2486
_cell_length_c       18.2486
_cell_angle_alpha    60
_cell_angle_beta     60
_cell_angle_gamma    60

_symmetry_space_group_name_H-M    "P 1"
_symmetry_int_tables_number       1

loop_
  _symmetry_equiv_pos_as_xyz
  'x, y, z'

loop_
  _atom_site_label
  _atom_site_occupancy
  _atom_site_fract_x
  _atom_site_fract_y
  _atom_site_fract_z
  _atom_site_thermal_displace_type
  _atom_site_B_iso_or_equiv
  _atom_site_type_symbol
  Zn1      1.0000 0.11962  0.29346  0.29346  Biso   1.000  Zn
  Zn2      1.0000 0.70654  0.88038  0.70654  Biso   1.000  Zn
  Zn3      1.0000 0.29346  0.29346  0.11962  Biso   1.000  Zn
  Zn4      1.0000 0.29346  0.29346  0.29346  Biso   1.000  Zn
  Zn5      1.0000 0.88038  0.70654  0.70654  Biso   1.000  Zn
  Zn6      1.0000 0.29346  0.11962  0.29346  Biso   1.000  Zn
  Zn7      1.0000 0.70654  0.70654  0.88038  Biso   1.000  Zn
  Zn8      1.0000 0.70654  0.70654  0.70654  Biso   1.000  Zn
  H1       1.0000 0.15060  0.45640  0.45640  Biso   1.000  H
  H2       1.0000 0.84940  0.54360  0.06340  Biso   1.000  H
  H3       1.0000 0.45640  0.93660  0.45640  Biso   1.000  H
  H4       1.0000 0.54360  0.84940  0.06340  Biso   1.000  H
  H5       1.0000 0.84940  0.54360  0.54360  Biso   1.000  H
  H6       1.0000 0.45640  0.15060  0.93660  Biso   1.000  H
  H7       1.0000 0.45640  0.93660  0.15060  Biso   1.000  H
  H8       1.0000 0.06340  0.54360  0.54360  Biso   1.000  H
  H9       1.0000 0.45640  0.15060  0.45640  Biso   1.000  H
  H10      1.0000 0.93660  0.45640  0.45640  Biso   1.000  H
  H11      1.0000 0.93660  0.15060  0.45640  Biso   1.000  H
  H12      1.0000 0.45640  0.45640  0.15060  Biso   1.000  H
  H13      1.0000 0.06340  0.84940  0.54360  Biso   1.000  H
  H14      1.0000 0.06340  0.54360  0.84940  Biso   1.000  H
  H15      1.0000 0.54360  0.06340  0.84940  Biso   1.000  H
  H16      1.0000 0.54360  0.84940  0.54360  Biso   1.000  H
  H17      1.0000 0.15060  0.93660  0.45640  Biso   1.000  H
  H18      1.0000 0.54360  0.06340  0.54360  Biso   1.000  H
  H19      1.0000 0.93660  0.45640  0.15060  Biso   1.000  H
  H20      1.0000 0.84940  0.06340  0.54360  Biso   1.000  H
  H21      1.0000 0.45640  0.45640  0.93660  Biso   1.000  H
  H22      1.0000 0.54360  0.54360  0.06340  Biso   1.000  H
  H23      1.0000 0.15060  0.45640  0.93660  Biso   1.000  H
  H24      1.0000 0.54360  0.54360  0.84940  Biso   1.000  H
  C1       1.0000 0.89030  0.60970  0.60970  Biso   1.000  C
  C2       1.0000 0.55390  0.55390  0.94610  Biso   1.000  C
  C3       1.0000 0.03650  0.91130  0.52610  Biso   1.000  C
  C4       1.0000 0.47390  0.96350  0.08870  Biso   1.000  C
  C5       1.0000 0.91130  0.52610  0.03650  Biso   1.000  C
  C6       1.0000 0.47390  0.47390  0.08870  Biso   1.000  C
  C7       1.0000 0.96350  0.08870  0.47390  Biso   1.000  C
  C8       1.0000 0.39030  0.10970  0.39030  Biso   1.000  C
  C9       1.0000 0.44610  0.05390  0.44610  Biso   1.000  C
  C10      1.0000 0.52610  0.52610  0.03650  Biso   1.000  C
  C11      1.0000 0.52610  0.91130  0.03650  Biso   1.000  C
  C12      1.0000 0.10970  0.10970  0.39030  Biso   1.000  C
  C13      1.0000 0.05390  0.44610  0.44610  Biso   1.000  C
  C14      1.0000 0.55390  0.94610  0.55390  Biso   1.000  C
  C15      1.0000 0.44610  0.05390  0.05390  Biso   1.000  C
  C16      1.0000 0.94610  0.55390  0.55390  Biso   1.000  C
  C17      1.0000 0.94610  0.55390  0.94610  Biso   1.000  C
  C18      1.0000 0.39030  0.39030  0.10970  Biso   1.000  C
  C19      1.0000 0.03650  0.52610  0.52610  Biso   1.000  C
  C20      1.0000 0.08870  0.47390  0.96350  Biso   1.000  C
  C21      1.0000 0.47390  0.96350  0.47390  Biso   1.000  C
  C22      1.0000 0.47390  0.47390  0.96350  Biso   1.000  C
  C23      1.0000 0.60970  0.89030  0.60970  Biso   1.000  C
  C24      1.0000 0.94610  0.94610  0.55390  Biso   1.000  C
  C25      1.0000 0.05390  0.05390  0.44610  Biso   1.000  C
  C26      1.0000 0.39030  0.10970  0.10970  Biso   1.000  C
  C27      1.0000 0.03650  0.52610  0.91130  Biso   1.000  C
  C28      1.0000 0.44610  0.44610  0.05390  Biso   1.000  C
  C29      1.0000 0.10970  0.39030  0.39030  Biso   1.000  C
  C30      1.0000 0.89030  0.89030  0.60970  Biso   1.000  C
  C31      1.0000 0.60970  0.89030  0.89030  Biso   1.000  C
  C32      1.0000 0.96350  0.47390  0.47390  Biso   1.000  C
  C33      1.0000 0.89030  0.60970  0.89030  Biso   1.000  C
  C34      1.0000 0.08870  0.47390  0.47390  Biso   1.000  C
  C35      1.0000 0.91130  0.52610  0.52610  Biso   1.000  C
  C36      1.0000 0.47390  0.08870  0.47390  Biso   1.000  C
  C37      1.0000 0.47390  0.08870  0.96350  Biso   1.000  C
  C38      1.0000 0.08870  0.96350  0.47390  Biso   1.000  C
  C39      1.0000 0.10970  0.39030  0.10970  Biso   1.000  C
  C40      1.0000 0.96350  0.47390  0.08870  Biso   1.000  C
  C41      1.0000 0.52610  0.52610  0.91130  Biso   1.000  C
  C42      1.0000 0.60970  0.60970  0.89030  Biso   1.000  C
  C43      1.0000 0.52610  0.91130  0.52610  Biso   1.000  C
  C44      1.0000 0.91130  0.03650  0.52610  Biso   1.000  C
  C45      1.0000 0.52610  0.03650  0.91130  Biso   1.000  C
  C46      1.0000 0.05390  0.44610  0.05390  Biso   1.000  C
  C47      1.0000 0.55390  0.94610  0.94610  Biso   1.000  C
  C48      1.0000 0.52610  0.03650  0.52610  Biso   1.000  C
  O1       1.0000 0.63380  0.80300  0.92940  Biso   1.000  O
  O2       1.0000 0.07060  0.19700  0.36620  Biso   1.000  O
  O3       1.0000 0.80300  0.63380  0.63380  Biso   1.000  O
  O4       1.0000 0.80300  0.92940  0.63380  Biso   1.000  O
  O5       1.0000 0.36620  0.07060  0.19700  Biso   1.000  O
  O6       1.0000 0.07060  0.36620  0.19700  Biso   1.000  O
  O7       1.0000 0.63380  0.92940  0.63380  Biso   1.000  O
  O8       1.0000 0.63380  0.80300  0.63380  Biso   1.000  O
  O9       1.0000 0.36620  0.36620  0.19700  Biso   1.000  O
  O10      1.0000 0.36620  0.07060  0.36620  Biso   1.000  O
  O11      1.0000 0.75000  0.75000  0.75000  Biso   1.000  O
  O12      1.0000 0.80300  0.63380  0.92940  Biso   1.000  O
  O13      1.0000 0.92940  0.80300  0.63380  Biso   1.000  O
  O14      1.0000 0.36620  0.19700  0.36620  Biso   1.000  O
  O15      1.0000 0.63380  0.63380  0.80300  Biso   1.000  O
  O16      1.0000 0.19700  0.36620  0.07060  Biso   1.000  O
  O17      1.0000 0.63380  0.63380  0.92940  Biso   1.000  O
  O18      1.0000 0.36620  0.36620  0.07060  Biso   1.000  O
  O19      1.0000 0.63380  0.92940  0.80300  Biso   1.000  O
  O20      1.0000 0.19700  0.07060  0.36620  Biso   1.000  O
  O21      1.0000 0.36620  0.19700  0.07060  Biso   1.000  O
  O22      1.0000 0.92940  0.63380  0.80300  Biso   1.000  O
  O23      1.0000 0.25000  0.25000  0.25000  Biso   1.000  O
  O24      1.0000 0.19700  0.36620  0.36620  Biso   1.000  O
  O25      1.0000 0.92940  0.63380  0.63380  Biso   1.000  O
  O26      1.0000 0.07060  0.36620  0.36620  Biso   1.000  O
  Zn9      1.0000 0.57815  0.42183  0.42180  Biso   1.000  Zn
  Zn10     1.0000 0.13986  0.84385  0.01600  Biso   1.000  Zn
  Zn11     1.0000 0.13986  0.01621  0.01600  Biso   1.000  Zn
  Zn12     1.0000 0.57815  0.59420  0.42180  Biso   1.000  Zn
  Zn13     1.0000 0.57811  0.42175  0.59439  Biso   1.000  Zn
  Zn14     1.0000 0.75029  0.42201  0.42168  Biso   1.000  Zn
  Zn15     1.0000 0.13990  0.01629  0.84342  Biso   1.000  Zn
  Zn16     1.0000 0.96772  0.01604  0.01613  Biso   1.000  Zn
  H25      1.0000 0.39873  0.26627  0.79224  Biso   1.000  H
  H26      1.0000 0.39779  0.26780  0.55720  Biso   1.000  H
  H27      1.0000 0.39492  0.55726  0.26860  Biso   1.000  H
  H28      1.0000 0.31928  0.87938  0.64556  Biso   1.000  H
  H29      1.0000 0.32023  0.64485  0.88061  Biso   1.000  H
  H30      1.0000 0.32309  0.64286  0.16921  Biso   1.000  H
  H31      1.0000 0.31928  0.17177  0.64556  Biso   1.000  H
  H32      1.0000 0.32023  0.17024  0.88061  Biso   1.000  H
  H33      1.0000 0.32309  0.88078  0.16921  Biso   1.000  H
  H34      1.0000 0.39873  0.55867  0.79224  Biso   1.000  H
  H35      1.0000 0.39779  0.79320  0.55720  Biso   1.000  H
  H36      1.0000 0.39492  0.79518  0.26860  Biso   1.000  H
  C49      1.0000 0.49158  0.33431  0.59883  Biso   1.000  C
  C50      1.0000 0.42803  0.27026  0.65767  Biso   1.000  C
  C51      1.0000 0.38318  0.24502  0.76607  Biso   1.000  C
  C52      1.0000 0.38323  0.24645  0.61998  Biso   1.000  C
  C53      1.0000 0.75120  0.33491  0.33502  Biso   1.000  C
  C54      1.0000 0.38164  0.61993  0.24508  Biso   1.000  C
  C55      1.0000 0.22643  0.84676  0.83898  Biso   1.000  C
  C56      1.0000 0.28998  0.77799  0.78014  Biso   1.000  C
  C57      1.0000 0.33483  0.81641  0.67174  Biso   1.000  C
  C58      1.0000 0.33478  0.67171  0.81783  Biso   1.000  C
  C59      1.0000 0.96681  0.84320  0.10279  Biso   1.000  C
  C60      1.0000 0.33638  0.66874  0.19273  Biso   1.000  C
  C61      1.0000 0.22643  0.10374  0.83898  Biso   1.000  C
  C62      1.0000 0.28998  0.16779  0.78014  Biso   1.000  C
  C63      1.0000 0.33483  0.19302  0.67174  Biso   1.000  C
  C64      1.0000 0.33478  0.19159  0.81783  Biso   1.000  C
  C65      1.0000 0.96681  0.10313  0.10279  Biso   1.000  C
  C66      1.0000 0.33638  0.81811  0.19273  Biso   1.000  C
  C67      1.0000 0.49158  0.59129  0.59883  Biso   1.000  C
  C68      1.0000 0.42803  0.66005  0.65767  Biso   1.000  C
  C69      1.0000 0.38319  0.62163  0.76607  Biso   1.000  C
  C70      1.0000 0.38323  0.76634  0.61998  Biso   1.000  C
  C71      1.0000 0.75120  0.59484  0.33502  Biso   1.000  C
  C72      1.0000 0.38164  0.76931  0.24508  Biso   1.000  C
  C73      1.0000 0.74925  0.33401  0.59873  Biso   1.000  C
  C74      1.0000 0.48822  0.59592  0.33590  Biso   1.000  C
  C75      1.0000 0.42781  0.66027  0.26761  Biso   1.000  C
  C76      1.0000 0.96877  0.10403  0.83908  Biso   1.000  C
  C77      1.0000 0.22979  0.84212  0.10191  Biso   1.000  C
  C78      1.0000 0.29020  0.77777  0.17020  Biso   1.000  C
  O27      1.0000 0.50890  0.35044  0.64232  Biso   1.000  O
  O28      1.0000 0.50693  0.34966  0.51676  Biso   1.000  O
  O29      1.0000 0.80000  0.35026  0.35115  Biso   1.000  O
  O30      1.0000 0.67082  0.35006  0.35105  Biso   1.000  O
  O31      1.0000 0.50770  0.51505  0.34948  Biso   1.000  O
  O32      1.0000 0.20911  0.92370  0.79549  Biso   1.000  O
  O33      1.0000 0.21109  0.79540  0.92105  Biso   1.000  O
  O34      1.0000 0.91801  0.92348  0.08666  Biso   1.000  O
  O35      1.0000 0.04719  0.79401  0.08675  Biso   1.000  O
  O36      1.0000 0.21031  0.79431  0.08833  Biso   1.000  O
  O37      1.0000 0.20911  0.08760  0.79549  Biso   1.000  O
  O38      1.0000 0.21109  0.08838  0.92105  Biso   1.000  O
  O39      1.0000 0.91801  0.08779  0.08666  Biso   1.000  O
  O40      1.0000 0.04719  0.08798  0.08675  Biso   1.000  O
  O41      1.0000 0.21031  0.92299  0.08833  Biso   1.000  O
  O42      1.0000 0.50890  0.51435  0.64232  Biso   1.000  O
  O43      1.0000 0.50693  0.64265  0.51676  Biso   1.000  O
  O44      1.0000 0.80000  0.51456  0.35115  Biso   1.000  O
  O45      1.0000 0.67082  0.64403  0.35105  Biso   1.000  O
  O46      1.0000 0.50770  0.64374  0.34948  Biso   1.000  O
  O47      1.0000 0.61977  0.46625  0.46372  Biso   1.000  O
  O48      1.0000 0.67113  0.35054  0.64379  Biso   1.000  O
  O49      1.0000 0.79971  0.35064  0.51499  Biso   1.000  O
  O50      1.0000 0.09825  0.97180  0.97409  Biso   1.000  O
  O51      1.0000 0.04688  0.08751  0.79402  Biso   1.000  O
  O52      1.0000 0.91830  0.08740  0.92282  Biso   1.000  O
