data_image0
_cell_length_a       18.2486
_cell_length_b       18.2486
_cell_length_c       18.2486
_cell_angle_alpha    60
_cell_angle_beta     60
_cell_angle_gamma    60

_symmetry_space_group_name_H-M    "P 1"
_symmetry_int_tables_number       1

loop_
  _symmetry_equiv_pos_as_xyz
  'x, y, z'

loop_
  _atom_site_label
  _atom_site_occupancy
  _atom_site_fract_x
  _atom_site_fract_y
  _atom_site_fract_z
  _atom_site_thermal_displace_type
  _atom_site_B_iso_or_equiv
  _atom_site_type_symbol
  Zn1      1.0000 0.11962  0.29346  0.29346  Biso   1.000  Zn
  Zn2      1.0000 0.70654  0.88038  0.70654  Biso   1.000  Zn
  Zn3      1.0000 0.29346  0.29346  0.11962  Biso   1.000  Zn
  Zn4      1.0000 0.29346  0.29346  0.29346  Biso   1.000  Zn
  Zn5      1.0000 0.88038  0.70654  0.70654  Biso   1.000  Zn
  Zn6      1.0000 0.29346  0.11962  0.29346  Biso   1.000  Zn
  Zn7      1.0000 0.70654  0.70654  0.88038  Biso   1.000  Zn
  Zn8      1.0000 0.70654  0.70654  0.70654  Biso   1.000  Zn
  H1       1.0000 0.15060  0.45640  0.45640  Biso   1.000  H
  H2       1.0000 0.84940  0.54360  0.06340  Biso   1.000  H
  H3       1.0000 0.45640  0.93660  0.45640  Biso   1.000  H
  H4       1.0000 0.54360  0.84940  0.06340  Biso   1.000  H
  H5       1.0000 0.84940  0.54360  0.54360  Biso   1.000  H
  H6       1.0000 0.45640  0.15060  0.93660  Biso   1.000  H
  H7       1.0000 0.45640  0.93660  0.15060  Biso   1.000  H
  H8       1.0000 0.06340  0.54360  0.54360  Biso   1.000  H
  H9       1.0000 0.45640  0.15060  0.45640  Biso   1.000  H
  H10      1.0000 0.93660  0.45640  0.45640  Biso   1.000  H
  H11      1.0000 0.93660  0.15060  0.45640  Biso   1.000  H
  H12      1.0000 0.45640  0.45640  0.15060  Biso   1.000  H
  H13      1.0000 0.06340  0.84940  0.54360  Biso   1.000  H
  H14      1.0000 0.06340  0.54360  0.84940  Biso   1.000  H
  H15      1.0000 0.54360  0.06340  0.84940  Biso   1.000  H
  H16      1.0000 0.54360  0.84940  0.54360  Biso   1.000  H
  H17      1.0000 0.15060  0.93660  0.45640  Biso   1.000  H
  H18      1.0000 0.54360  0.06340  0.54360  Biso   1.000  H
  H19      1.0000 0.93660  0.45640  0.15060  Biso   1.000  H
  H20      1.0000 0.84940  0.06340  0.54360  Biso   1.000  H
  H21      1.0000 0.45640  0.45640  0.93660  Biso   1.000  H
  H22      1.0000 0.54360  0.54360  0.06340  Biso   1.000  H
  H23      1.0000 0.15060  0.45640  0.93660  Biso   1.000  H
  H24      1.0000 0.54360  0.54360  0.84940  Biso   1.000  H
  C1       1.0000 0.89030  0.60970  0.60970  Biso   1.000  C
  C2       1.0000 0.55390  0.55390  0.94610  Biso   1.000  C
  C3       1.0000 0.03650  0.91130  0.52610  Biso   1.000  C
  C4       1.0000 0.47390  0.96350  0.08870  Biso   1.000  C
  C5       1.0000 0.91130  0.52610  0.03650  Biso   1.000  C
  C6       1.0000 0.47390  0.47390  0.08870  Biso   1.000  C
  C7       1.0000 0.96350  0.08870  0.47390  Biso   1.000  C
  C8       1.0000 0.39030  0.10970  0.39030  Biso   1.000  C
  C9       1.0000 0.44610  0.05390  0.44610  Biso   1.000  C
  C10      1.0000 0.52610  0.52610  0.03650  Biso   1.000  C
  C11      1.0000 0.52610  0.91130  0.03650  Biso   1.000  C
  C12      1.0000 0.10970  0.10970  0.39030  Biso   1.000  C
  C13      1.0000 0.05390  0.44610  0.44610  Biso   1.000  C
  C14      1.0000 0.55390  0.94610  0.55390  Biso   1.000  C
  C15      1.0000 0.44610  0.05390  0.05390  Biso   1.000  C
  C16      1.0000 0.94610  0.55390  0.55390  Biso   1.000  C
  C17      1.0000 0.94610  0.55390  0.94610  Biso   1.000  C
  C18      1.0000 0.39030  0.39030  0.10970  Biso   1.000  C
  C19      1.0000 0.03650  0.52610  0.52610  Biso   1.000  C
  C20      1.0000 0.08870  0.47390  0.96350  Biso   1.000  C
  C21      1.0000 0.47390  0.96350  0.47390  Biso   1.000  C
  C22      1.0000 0.47390  0.47390  0.96350  Biso   1.000  C
  C23      1.0000 0.60970  0.89030  0.60970  Biso   1.000  C
  C24      1.0000 0.94610  0.94610  0.55390  Biso   1.000  C
  C25      1.0000 0.05390  0.05390  0.44610  Biso   1.000  C
  C26      1.0000 0.39030  0.10970  0.10970  Biso   1.000  C
  C27      1.0000 0.03650  0.52610  0.91130  Biso   1.000  C
  C28      1.0000 0.44610  0.44610  0.05390  Biso   1.000  C
  C29      1.0000 0.10970  0.39030  0.39030  Biso   1.000  C
  C30      1.0000 0.89030  0.89030  0.60970  Biso   1.000  C
  C31      1.0000 0.60970  0.89030  0.89030  Biso   1.000  C
  C32      1.0000 0.96350  0.47390  0.47390  Biso   1.000  C
  C33      1.0000 0.89030  0.60970  0.89030  Biso   1.000  C
  C34      1.0000 0.08870  0.47390  0.47390  Biso   1.000  C
  C35      1.0000 0.91130  0.52610  0.52610  Biso   1.000  C
  C36      1.0000 0.47390  0.08870  0.47390  Biso   1.000  C
  C37      1.0000 0.47390  0.08870  0.96350  Biso   1.000  C
  C38      1.0000 0.08870  0.96350  0.47390  Biso   1.000  C
  C39      1.0000 0.10970  0.39030  0.10970  Biso   1.000  C
  C40      1.0000 0.96350  0.47390  0.08870  Biso   1.000  C
  C41      1.0000 0.52610  0.52610  0.91130  Biso   1.000  C
  C42      1.0000 0.60970  0.60970  0.89030  Biso   1.000  C
  C43      1.0000 0.52610  0.91130  0.52610  Biso   1.000  C
  C44      1.0000 0.91130  0.03650  0.52610  Biso   1.000  C
  C45      1.0000 0.52610  0.03650  0.91130  Biso   1.000  C
  C46      1.0000 0.05390  0.44610  0.05390  Biso   1.000  C
  C47      1.0000 0.55390  0.94610  0.94610  Biso   1.000  C
  C48      1.0000 0.52610  0.03650  0.52610  Biso   1.000  C
  O1       1.0000 0.63380  0.80300  0.92940  Biso   1.000  O
  O2       1.0000 0.07060  0.19700  0.36620  Biso   1.000  O
  O3       1.0000 0.80300  0.63380  0.63380  Biso   1.000  O
  O4       1.0000 0.80300  0.92940  0.63380  Biso   1.000  O
  O5       1.0000 0.36620  0.07060  0.19700  Biso   1.000  O
  O6       1.0000 0.07060  0.36620  0.19700  Biso   1.000  O
  O7       1.0000 0.63380  0.92940  0.63380  Biso   1.000  O
  O8       1.0000 0.63380  0.80300  0.63380  Biso   1.000  O
  O9       1.0000 0.36620  0.36620  0.19700  Biso   1.000  O
  O10      1.0000 0.36620  0.07060  0.36620  Biso   1.000  O
  O11      1.0000 0.75000  0.75000  0.75000  Biso   1.000  O
  O12      1.0000 0.80300  0.63380  0.92940  Biso   1.000  O
  O13      1.0000 0.92940  0.80300  0.63380  Biso   1.000  O
  O14      1.0000 0.36620  0.19700  0.36620  Biso   1.000  O
  O15      1.0000 0.63380  0.63380  0.80300  Biso   1.000  O
  O16      1.0000 0.19700  0.36620  0.07060  Biso   1.000  O
  O17      1.0000 0.63380  0.63380  0.92940  Biso   1.000  O
  O18      1.0000 0.36620  0.36620  0.07060  Biso   1.000  O
  O19      1.0000 0.63380  0.92940  0.80300  Biso   1.000  O
  O20      1.0000 0.19700  0.07060  0.36620  Biso   1.000  O
  O21      1.0000 0.36620  0.19700  0.07060  Biso   1.000  O
  O22      1.0000 0.92940  0.63380  0.80300  Biso   1.000  O
  O23      1.0000 0.25000  0.25000  0.25000  Biso   1.000  O
  O24      1.0000 0.19700  0.36620  0.36620  Biso   1.000  O
  O25      1.0000 0.92940  0.63380  0.63380  Biso   1.000  O
  O26      1.0000 0.07060  0.36620  0.36620  Biso   1.000  O
  Zn9      1.0000 0.89100  0.75861  0.43237  Biso   1.000  Zn
  Zn10     1.0000 0.06517  0.75861  0.25820  Biso   1.000  Zn
  Zn11     1.0000 0.89100  0.75861  0.25820  Biso   1.000  Zn
  Zn12     1.0000 0.89100  0.93278  0.25820  Biso   1.000  Zn
  Zn13     1.0000 0.47843  0.34558  0.67099  Biso   1.000  Zn
  Zn14     1.0000 0.30425  0.34558  0.84516  Biso   1.000  Zn
  Zn15     1.0000 0.47843  0.17141  0.84516  Biso   1.000  Zn
  Zn16     1.0000 0.47843  0.34558  0.84516  Biso   1.000  Zn
  H25      1.0000 0.03259  0.59631  0.61538  Biso   1.000  H
  H26      1.0000 0.24841  0.59631  0.39956  Biso   1.000  H
  H27      1.0000 0.72892  0.89998  0.09589  Biso   1.000  H
  H28      1.0000 0.72892  0.11580  0.09589  Biso   1.000  H
  H29      1.0000 0.72892  0.11580  0.39956  Biso   1.000  H
  H30      1.0000 0.72892  0.89998  0.61538  Biso   1.000  H
  H31      1.0000 0.03259  0.59631  0.09589  Biso   1.000  H
  H32      1.0000 0.24841  0.59631  0.09589  Biso   1.000  H
  H33      1.0000 0.24841  0.89998  0.09589  Biso   1.000  H
  H34      1.0000 0.03259  0.11580  0.09589  Biso   1.000  H
  H35      1.0000 0.72892  0.59631  0.39956  Biso   1.000  H
  H36      1.0000 0.72892  0.59631  0.61538  Biso   1.000  H
  H37      1.0000 0.33683  0.50789  0.48798  Biso   1.000  H
  H38      1.0000 0.12101  0.50789  0.70380  Biso   1.000  H
  H39      1.0000 0.64050  0.98840  0.00747  Biso   1.000  H
  H40      1.0000 0.64050  0.20422  0.00747  Biso   1.000  H
  H41      1.0000 0.64050  0.50789  0.70380  Biso   1.000  H
  H42      1.0000 0.64050  0.50789  0.48798  Biso   1.000  H
  H43      1.0000 0.33683  0.98840  0.00747  Biso   1.000  H
  H44      1.0000 0.12101  0.20422  0.00747  Biso   1.000  H
  H45      1.0000 0.12101  0.50789  0.00747  Biso   1.000  H
  H46      1.0000 0.33683  0.50789  0.00747  Biso   1.000  H
  H47      1.0000 0.64050  0.98840  0.70380  Biso   1.000  H
  H48      1.0000 0.64050  0.20422  0.48798  Biso   1.000  H
  C49      1.0000 0.09476  0.57861  0.58860  Biso   1.000  C
  C50      1.0000 0.22164  0.57861  0.46172  Biso   1.000  C
  C51      1.0000 0.71123  0.96214  0.07820  Biso   1.000  C
  C52      1.0000 0.71123  0.08902  0.07820  Biso   1.000  C
  C53      1.0000 0.71123  0.08902  0.46172  Biso   1.000  C
  C54      1.0000 0.71123  0.96214  0.58860  Biso   1.000  C
  C55      1.0000 0.09476  0.57861  0.07820  Biso   1.000  C
  C56      1.0000 0.22164  0.57861  0.07820  Biso   1.000  C
  C57      1.0000 0.22164  0.96214  0.07820  Biso   1.000  C
  C58      1.0000 0.09476  0.08902  0.07820  Biso   1.000  C
  C59      1.0000 0.71123  0.57861  0.46172  Biso   1.000  C
  C60      1.0000 0.71123  0.57861  0.58860  Biso   1.000  C
  C61      1.0000 0.27467  0.52558  0.51476  Biso   1.000  C
  C62      1.0000 0.14779  0.52558  0.64163  Biso   1.000  C
  C63      1.0000 0.65820  0.01517  0.02516  Biso   1.000  C
  C64      1.0000 0.65820  0.14205  0.02516  Biso   1.000  C
  C65      1.0000 0.65820  0.52558  0.64163  Biso   1.000  C
  C66      1.0000 0.65820  0.52558  0.51476  Biso   1.000  C
  C67      1.0000 0.27467  0.01517  0.02516  Biso   1.000  C
  C68      1.0000 0.14779  0.14205  0.02516  Biso   1.000  C
  C69      1.0000 0.14779  0.52558  0.02516  Biso   1.000  C
  C70      1.0000 0.27467  0.52558  0.02516  Biso   1.000  C
  C71      1.0000 0.65820  0.01517  0.64163  Biso   1.000  C
  C72      1.0000 0.65820  0.14205  0.51476  Biso   1.000  C
  C73      1.0000 0.07316  0.66353  0.44036  Biso   1.000  C
  C74      1.0000 0.13088  0.60581  0.49808  Biso   1.000  C
  C75      1.0000 0.79592  0.94078  0.16311  Biso   1.000  C
  C76      1.0000 0.73819  0.99850  0.10539  Biso   1.000  C
  C77      1.0000 0.79592  0.94078  0.44036  Biso   1.000  C
  C78      1.0000 0.73819  0.99850  0.49808  Biso   1.000  C
  C79      1.0000 0.07316  0.66353  0.16311  Biso   1.000  C
  C80      1.0000 0.13088  0.60581  0.10539  Biso   1.000  C
  C81      1.0000 0.07316  0.94078  0.16311  Biso   1.000  C
  C82      1.0000 0.13088  0.99850  0.10539  Biso   1.000  C
  C83      1.0000 0.79592  0.66353  0.44036  Biso   1.000  C
  C84      1.0000 0.73819  0.60581  0.49808  Biso   1.000  C
  C85      1.0000 0.29626  0.44066  0.66300  Biso   1.000  C
  C86      1.0000 0.23854  0.49838  0.60528  Biso   1.000  C
  C87      1.0000 0.57351  0.16342  0.94024  Biso   1.000  C
  C88      1.0000 0.63123  0.10569  0.99797  Biso   1.000  C
  C89      1.0000 0.57351  0.44066  0.66300  Biso   1.000  C
  C90      1.0000 0.63123  0.49838  0.60528  Biso   1.000  C
  C91      1.0000 0.29626  0.16342  0.94024  Biso   1.000  C
  C92      1.0000 0.23854  0.10569  0.99797  Biso   1.000  C
  C93      1.0000 0.29626  0.44066  0.94024  Biso   1.000  C
  C94      1.0000 0.23854  0.49838  0.99797  Biso   1.000  C
  C95      1.0000 0.57351  0.16342  0.66300  Biso   1.000  C
  C96      1.0000 0.63123  0.10569  0.60528  Biso   1.000  C
  O27      1.0000 0.93454  0.80215  0.30174  Biso   1.000  O
  O28      1.0000 0.43489  0.30204  0.80162  Biso   1.000  O
  O29      1.0000 0.98986  0.68608  0.47857  Biso   1.000  O
  O30      1.0000 0.11137  0.68608  0.35706  Biso   1.000  O
  O31      1.0000 0.81846  0.85748  0.18566  Biso   1.000  O
  O32      1.0000 0.81846  0.97899  0.18566  Biso   1.000  O
  O33      1.0000 0.81846  0.97899  0.35706  Biso   1.000  O
  O34      1.0000 0.81846  0.85748  0.47857  Biso   1.000  O
  O35      1.0000 0.98986  0.68608  0.18566  Biso   1.000  O
  O36      1.0000 0.11137  0.68608  0.18566  Biso   1.000  O
  O37      1.0000 0.11137  0.85748  0.18566  Biso   1.000  O
  O38      1.0000 0.98986  0.97899  0.18566  Biso   1.000  O
  O39      1.0000 0.81846  0.68608  0.35706  Biso   1.000  O
  O40      1.0000 0.81846  0.68608  0.47857  Biso   1.000  O
  O41      1.0000 0.37956  0.41812  0.62479  Biso   1.000  O
  O42      1.0000 0.25805  0.41812  0.74630  Biso   1.000  O
  O43      1.0000 0.55096  0.12521  0.91770  Biso   1.000  O
  O44      1.0000 0.55096  0.24672  0.91770  Biso   1.000  O
  O45      1.0000 0.55096  0.41812  0.74630  Biso   1.000  O
  O46      1.0000 0.55096  0.41812  0.62479  Biso   1.000  O
  O47      1.0000 0.37956  0.12521  0.91770  Biso   1.000  O
  O48      1.0000 0.25805  0.24672  0.91770  Biso   1.000  O
  O49      1.0000 0.25805  0.41812  0.91770  Biso   1.000  O
  O50      1.0000 0.37956  0.41812  0.91770  Biso   1.000  O
  O51      1.0000 0.55096  0.12521  0.74630  Biso   1.000  O
  O52      1.0000 0.55096  0.24672  0.62479  Biso   1.000  O
