data_image0
_cell_length_a       18.2016
_cell_length_b       18.2016
_cell_length_c       18.2016
_cell_angle_alpha    60
_cell_angle_beta     60
_cell_angle_gamma    60

_symmetry_space_group_name_H-M    "P 1"
_symmetry_int_tables_number       1

loop_
  _symmetry_equiv_pos_as_xyz
  'x, y, z'

loop_
  _atom_site_label
  _atom_site_occupancy
  _atom_site_fract_x
  _atom_site_fract_y
  _atom_site_fract_z
  _atom_site_thermal_displace_type
  _atom_site_B_iso_or_equiv
  _atom_site_type_symbol
  C1       1.0000 0.54338  0.36986  0.54338  Biso   1.000  C
  C2       1.0000 0.36986  0.54338  0.54338  Biso   1.000  C
  C3       1.0000 0.54338  0.54338  0.54338  Biso   1.000  C
  C4       1.0000 0.54338  0.54338  0.36986  Biso   1.000  C
  C5       1.0000 0.13029  0.95657  0.95657  Biso   1.000  C
  C6       1.0000 0.95657  0.13029  0.95657  Biso   1.000  C
  C7       1.0000 0.95657  0.95657  0.13029  Biso   1.000  C
  C8       1.0000 0.95657  0.95657  0.95657  Biso   1.000  C
  C9       1.0000 0.31480  0.09680  0.79420  Biso   1.000  C
  C10      1.0000 0.09680  0.31480  0.79420  Biso   1.000  C
  C11      1.0000 0.79420  0.79420  0.31480  Biso   1.000  C
  C12      1.0000 0.79420  0.79420  0.09680  Biso   1.000  C
  C13      1.0000 0.31480  0.79420  0.79420  Biso   1.000  C
  C14      1.0000 0.09680  0.79420  0.79420  Biso   1.000  C
  C15      1.0000 0.79420  0.31480  0.09680  Biso   1.000  C
  C16      1.0000 0.79420  0.09680  0.31480  Biso   1.000  C
  C17      1.0000 0.31480  0.79420  0.09680  Biso   1.000  C
  C18      1.0000 0.09680  0.79420  0.31480  Biso   1.000  C
  C19      1.0000 0.79420  0.09680  0.79420  Biso   1.000  C
  C20      1.0000 0.79420  0.31480  0.79420  Biso   1.000  C
  C21      1.0000 0.33050  0.21250  0.72850  Biso   1.000  C
  C22      1.0000 0.28810  0.15890  0.77650  Biso   1.000  C
  C23      1.0000 0.21250  0.33050  0.72850  Biso   1.000  C
  C24      1.0000 0.15890  0.28810  0.77650  Biso   1.000  C
  C25      1.0000 0.72850  0.72850  0.33050  Biso   1.000  C
  C26      1.0000 0.77650  0.77650  0.28810  Biso   1.000  C
  C27      1.0000 0.72850  0.72850  0.21250  Biso   1.000  C
  C28      1.0000 0.77650  0.77650  0.15890  Biso   1.000  C
  C29      1.0000 0.33050  0.72850  0.72850  Biso   1.000  C
  C30      1.0000 0.28810  0.77650  0.77650  Biso   1.000  C
  C31      1.0000 0.21250  0.72850  0.72850  Biso   1.000  C
  C32      1.0000 0.15890  0.77650  0.77650  Biso   1.000  C
  C33      1.0000 0.72850  0.33050  0.21250  Biso   1.000  C
  C34      1.0000 0.77650  0.28810  0.15890  Biso   1.000  C
  C35      1.0000 0.72850  0.21250  0.33050  Biso   1.000  C
  C36      1.0000 0.77650  0.15890  0.28810  Biso   1.000  C
  C37      1.0000 0.33050  0.72850  0.21250  Biso   1.000  C
  C38      1.0000 0.28810  0.77650  0.15890  Biso   1.000  C
  C39      1.0000 0.21250  0.72850  0.33050  Biso   1.000  C
  C40      1.0000 0.15890  0.77650  0.28810  Biso   1.000  C
  C41      1.0000 0.72850  0.21250  0.72850  Biso   1.000  C
  C42      1.0000 0.77650  0.15890  0.77650  Biso   1.000  C
  C43      1.0000 0.72850  0.33050  0.72850  Biso   1.000  C
  C44      1.0000 0.77650  0.28810  0.77650  Biso   1.000  C
  C45      1.0000 0.30490  0.30490  0.69510  Biso   1.000  C
  C46      1.0000 0.20070  0.20070  0.79930  Biso   1.000  C
  C47      1.0000 0.13930  0.13930  0.86070  Biso   1.000  C
  C48      1.0000 0.36170  0.36170  0.63830  Biso   1.000  C
  C49      1.0000 0.69510  0.69510  0.30490  Biso   1.000  C
  C50      1.0000 0.79930  0.79930  0.20070  Biso   1.000  C
  C51      1.0000 0.86070  0.86070  0.13930  Biso   1.000  C
  C52      1.0000 0.63830  0.63830  0.36170  Biso   1.000  C
  C53      1.0000 0.30490  0.69510  0.69510  Biso   1.000  C
  C54      1.0000 0.20070  0.79930  0.79930  Biso   1.000  C
  C55      1.0000 0.13930  0.86070  0.86070  Biso   1.000  C
  C56      1.0000 0.36170  0.63830  0.63830  Biso   1.000  C
  C57      1.0000 0.69510  0.30490  0.30490  Biso   1.000  C
  C58      1.0000 0.79930  0.20070  0.20070  Biso   1.000  C
  C59      1.0000 0.86070  0.13930  0.13930  Biso   1.000  C
  C60      1.0000 0.63830  0.36170  0.36170  Biso   1.000  C
  C61      1.0000 0.30490  0.69510  0.30490  Biso   1.000  C
  C62      1.0000 0.20070  0.79930  0.20070  Biso   1.000  C
  C63      1.0000 0.13930  0.86070  0.13930  Biso   1.000  C
  C64      1.0000 0.36170  0.63830  0.36170  Biso   1.000  C
  C65      1.0000 0.69510  0.30490  0.69510  Biso   1.000  C
  C66      1.0000 0.79930  0.20070  0.79930  Biso   1.000  C
  C67      1.0000 0.86070  0.13930  0.86070  Biso   1.000  C
  C68      1.0000 0.63830  0.36170  0.63830  Biso   1.000  C
  C69      1.0000 0.17850  0.05170  0.88490  Biso   1.000  C
  C70      1.0000 0.44150  0.32470  0.61690  Biso   1.000  C
  C71      1.0000 0.05170  0.17850  0.88490  Biso   1.000  C
  C72      1.0000 0.32470  0.44150  0.61690  Biso   1.000  C
  C73      1.0000 0.88490  0.88490  0.17850  Biso   1.000  C
  C74      1.0000 0.61690  0.61690  0.44150  Biso   1.000  C
  C75      1.0000 0.88490  0.88490  0.05170  Biso   1.000  C
  C76      1.0000 0.61690  0.61690  0.32470  Biso   1.000  C
  C77      1.0000 0.17850  0.88490  0.88490  Biso   1.000  C
  C78      1.0000 0.44150  0.61690  0.61690  Biso   1.000  C
  C79      1.0000 0.05170  0.88490  0.88490  Biso   1.000  C
  C80      1.0000 0.32470  0.61690  0.61690  Biso   1.000  C
  C81      1.0000 0.88490  0.17850  0.05170  Biso   1.000  C
  C82      1.0000 0.61690  0.44150  0.32470  Biso   1.000  C
  C83      1.0000 0.88490  0.05170  0.17850  Biso   1.000  C
  C84      1.0000 0.61690  0.32470  0.44150  Biso   1.000  C
  C85      1.0000 0.17850  0.88490  0.05170  Biso   1.000  C
  C86      1.0000 0.44150  0.61690  0.32470  Biso   1.000  C
  C87      1.0000 0.05170  0.88490  0.17850  Biso   1.000  C
  C88      1.0000 0.32470  0.61690  0.44150  Biso   1.000  C
  C89      1.0000 0.88490  0.05170  0.88490  Biso   1.000  C
  C90      1.0000 0.61690  0.32470  0.61690  Biso   1.000  C
  C91      1.0000 0.88490  0.17850  0.88490  Biso   1.000  C
  C92      1.0000 0.61690  0.44150  0.61690  Biso   1.000  C
  C93      1.0000 0.00000  0.00000  0.00000  Biso   1.000  C
  C94      1.0000 0.50000  0.50000  0.50000  Biso   1.000  C
  O1       1.0000 0.51530  0.99265  0.15437  Biso   1.000  O
  O2       1.0000 0.34227  0.99265  0.32740  Biso   1.000  O
  O3       1.0000 0.34227  0.16568  0.15437  Biso   1.000  O
  O4       1.0000 0.34227  0.99265  0.15437  Biso   1.000  O
  O5       1.0000 0.74738  0.58196  0.74368  Biso   1.000  O
  O6       1.0000 0.92041  0.58196  0.57065  Biso   1.000  O
  O7       1.0000 0.92041  0.58196  0.74368  Biso   1.000  O
  O8       1.0000 0.92041  0.40893  0.74368  Biso   1.000  O
  O9       1.0000 0.70036  0.83225  0.29011  Biso   1.000  O
  O10      1.0000 0.47242  0.83225  0.51805  Biso   1.000  O
  O11      1.0000 0.17628  0.35633  0.99397  Biso   1.000  O
  O12      1.0000 0.17628  0.12839  0.99397  Biso   1.000  O
  O13      1.0000 0.17628  0.12839  0.51805  Biso   1.000  O
  O14      1.0000 0.17628  0.35633  0.29011  Biso   1.000  O
  O15      1.0000 0.70036  0.83225  0.99397  Biso   1.000  O
  O16      1.0000 0.47242  0.83225  0.99397  Biso   1.000  O
  O17      1.0000 0.47242  0.35633  0.99397  Biso   1.000  O
  O18      1.0000 0.70036  0.12839  0.99397  Biso   1.000  O
  O19      1.0000 0.17628  0.83225  0.51805  Biso   1.000  O
  O20      1.0000 0.17628  0.83225  0.29011  Biso   1.000  O
  O21      1.0000 0.56232  0.74236  0.60794  Biso   1.000  O
  O22      1.0000 0.79025  0.74236  0.38001  Biso   1.000  O
  O23      1.0000 0.08639  0.44622  0.90408  Biso   1.000  O
  O24      1.0000 0.08639  0.21829  0.90408  Biso   1.000  O
  O25      1.0000 0.08639  0.74236  0.38001  Biso   1.000  O
  O26      1.0000 0.08639  0.74236  0.60794  Biso   1.000  O
  O27      1.0000 0.56232  0.44622  0.90408  Biso   1.000  O
  O28      1.0000 0.79025  0.21829  0.90408  Biso   1.000  O
  O29      1.0000 0.79025  0.74236  0.90408  Biso   1.000  O
  O30      1.0000 0.56232  0.74236  0.90408  Biso   1.000  O
  O31      1.0000 0.08639  0.44622  0.38001  Biso   1.000  O
  O32      1.0000 0.08639  0.21829  0.60794  Biso   1.000  O
  O33      1.0000 0.67381  0.81346  0.35425  Biso   1.000  O
  O34      1.0000 0.53656  0.81346  0.49150  Biso   1.000  O
  O35      1.0000 0.15749  0.32978  0.97518  Biso   1.000  O
  O36      1.0000 0.15749  0.19253  0.97518  Biso   1.000  O
  O37      1.0000 0.15749  0.19253  0.49150  Biso   1.000  O
  O38      1.0000 0.15749  0.32978  0.35425  Biso   1.000  O
  O39      1.0000 0.67381  0.81346  0.97518  Biso   1.000  O
  O40      1.0000 0.53656  0.81346  0.97518  Biso   1.000  O
  O41      1.0000 0.53656  0.32978  0.97518  Biso   1.000  O
  O42      1.0000 0.67381  0.19253  0.97518  Biso   1.000  O
  O43      1.0000 0.15749  0.81346  0.49150  Biso   1.000  O
  O44      1.0000 0.15749  0.81346  0.35425  Biso   1.000  O
  O45      1.0000 0.58887  0.76115  0.54380  Biso   1.000  O
  O46      1.0000 0.72611  0.76115  0.40656  Biso   1.000  O
  O47      1.0000 0.10518  0.38208  0.92287  Biso   1.000  O
  O48      1.0000 0.10518  0.24484  0.92287  Biso   1.000  O
  O49      1.0000 0.10518  0.76115  0.40656  Biso   1.000  O
  O50      1.0000 0.10518  0.76115  0.54380  Biso   1.000  O
  O51      1.0000 0.58887  0.38208  0.92287  Biso   1.000  O
  O52      1.0000 0.72611  0.24484  0.92287  Biso   1.000  O
  O53      1.0000 0.72611  0.76115  0.92287  Biso   1.000  O
  O54      1.0000 0.58887  0.76115  0.92287  Biso   1.000  O
  O55      1.0000 0.10518  0.38208  0.40656  Biso   1.000  O
  O56      1.0000 0.10518  0.24484  0.54380  Biso   1.000  O
  O57      1.0000 0.52425  0.89719  0.33635  Biso   1.000  O
  O58      1.0000 0.58063  0.84081  0.39274  Biso   1.000  O
  O59      1.0000 0.24681  0.17463  0.05891  Biso   1.000  O
  O60      1.0000 0.19042  0.23102  0.00253  Biso   1.000  O
  O61      1.0000 0.24681  0.17463  0.33635  Biso   1.000  O
  O62      1.0000 0.19042  0.23102  0.39274  Biso   1.000  O
  O63      1.0000 0.52425  0.89719  0.05891  Biso   1.000  O
  O64      1.0000 0.58063  0.84081  0.00253  Biso   1.000  O
  O65      1.0000 0.52425  0.17463  0.05891  Biso   1.000  O
  O66      1.0000 0.58063  0.23102  0.00253  Biso   1.000  O
  O67      1.0000 0.24681  0.89719  0.33635  Biso   1.000  O
  O68      1.0000 0.19042  0.84081  0.39274  Biso   1.000  O
  O69      1.0000 0.73843  0.67742  0.56170  Biso   1.000  O
  O70      1.0000 0.68204  0.73381  0.50532  Biso   1.000  O
  O71      1.0000 0.01587  0.39998  0.83914  Biso   1.000  O
  O72      1.0000 0.07225  0.34360  0.89553  Biso   1.000  O
  O73      1.0000 0.01587  0.67742  0.56170  Biso   1.000  O
  O74      1.0000 0.07225  0.73381  0.50532  Biso   1.000  O
  O75      1.0000 0.73843  0.39998  0.83914  Biso   1.000  O
  O76      1.0000 0.68204  0.34360  0.89553  Biso   1.000  O
  O77      1.0000 0.73843  0.67742  0.83914  Biso   1.000  O
  O78      1.0000 0.68204  0.73381  0.89553  Biso   1.000  O
  O79      1.0000 0.01587  0.39998  0.56170  Biso   1.000  O
  O80      1.0000 0.07225  0.34360  0.50532  Biso   1.000  O
  O81      1.0000 0.38553  0.03591  0.19763  Biso   1.000  O
  O82      1.0000 0.87715  0.53870  0.70042  Biso   1.000  O
  O83      1.0000 0.56422  0.92046  0.24984  Biso   1.000  O
  O84      1.0000 0.43773  0.92046  0.37633  Biso   1.000  O
  O85      1.0000 0.27007  0.21461  0.08218  Biso   1.000  O
  O86      1.0000 0.27007  0.08812  0.08218  Biso   1.000  O
  O87      1.0000 0.27007  0.08812  0.37633  Biso   1.000  O
  O88      1.0000 0.27007  0.21461  0.24984  Biso   1.000  O
  O89      1.0000 0.56422  0.92046  0.08218  Biso   1.000  O
  O90      1.0000 0.43773  0.92046  0.08218  Biso   1.000  O
  O91      1.0000 0.43773  0.21461  0.08218  Biso   1.000  O
  O92      1.0000 0.56422  0.08812  0.08218  Biso   1.000  O
  O93      1.0000 0.27007  0.92046  0.37633  Biso   1.000  O
  O94      1.0000 0.27007  0.92046  0.24984  Biso   1.000  O
  O95      1.0000 0.69845  0.65416  0.64822  Biso   1.000  O
  O96      1.0000 0.82494  0.65415  0.52173  Biso   1.000  O
  O97      1.0000 0.99260  0.48650  0.81587  Biso   1.000  O
  O98      1.0000 0.99260  0.36001  0.81587  Biso   1.000  O
  O99      1.0000 0.99260  0.65415  0.52173  Biso   1.000  O
  O100     1.0000 0.99260  0.65416  0.64822  Biso   1.000  O
  O101     1.0000 0.69845  0.48650  0.81587  Biso   1.000  O
  O102     1.0000 0.82494  0.36001  0.81587  Biso   1.000  O
  O103     1.0000 0.82494  0.65416  0.81587  Biso   1.000  O
  O104     1.0000 0.69845  0.65416  0.81587  Biso   1.000  O
  O105     1.0000 0.99260  0.48650  0.52173  Biso   1.000  O
  O106     1.0000 0.99260  0.36001  0.64822  Biso   1.000  O
