data_image0
_cell_length_a       18.2016
_cell_length_b       18.2016
_cell_length_c       18.2016
_cell_angle_alpha    60
_cell_angle_beta     60
_cell_angle_gamma    60

_symmetry_space_group_name_H-M    "P 1"
_symmetry_int_tables_number       1

loop_
  _symmetry_equiv_pos_as_xyz
  'x, y, z'

loop_
  _atom_site_label
  _atom_site_occupancy
  _atom_site_fract_x
  _atom_site_fract_y
  _atom_site_fract_z
  _atom_site_thermal_displace_type
  _atom_site_B_iso_or_equiv
  _atom_site_type_symbol
  Zn1      1.0000 0.54338  0.36986  0.54338  Biso   1.000  Zn
  Zn2      1.0000 0.36986  0.54338  0.54338  Biso   1.000  Zn
  Zn3      1.0000 0.54338  0.54338  0.54338  Biso   1.000  Zn
  Zn4      1.0000 0.54338  0.54338  0.36986  Biso   1.000  Zn
  Zn5      1.0000 0.13029  0.95657  0.95657  Biso   1.000  Zn
  Zn6      1.0000 0.95657  0.13029  0.95657  Biso   1.000  Zn
  Zn7      1.0000 0.95657  0.95657  0.13029  Biso   1.000  Zn
  Zn8      1.0000 0.95657  0.95657  0.95657  Biso   1.000  Zn
  H1       1.0000 0.31480  0.09680  0.79420  Biso   1.000  H
  H2       1.0000 0.09680  0.31480  0.79420  Biso   1.000  H
  H3       1.0000 0.79420  0.79420  0.31480  Biso   1.000  H
  H4       1.0000 0.79420  0.79420  0.09680  Biso   1.000  H
  H5       1.0000 0.31480  0.79420  0.79420  Biso   1.000  H
  H6       1.0000 0.09680  0.79420  0.79420  Biso   1.000  H
  H7       1.0000 0.79420  0.31480  0.09680  Biso   1.000  H
  H8       1.0000 0.79420  0.09680  0.31480  Biso   1.000  H
  H9       1.0000 0.31480  0.79420  0.09680  Biso   1.000  H
  H10      1.0000 0.09680  0.79420  0.31480  Biso   1.000  H
  H11      1.0000 0.79420  0.09680  0.79420  Biso   1.000  H
  H12      1.0000 0.79420  0.31480  0.79420  Biso   1.000  H
  C1       1.0000 0.33050  0.21250  0.72850  Biso   1.000  C
  C2       1.0000 0.28810  0.15890  0.77650  Biso   1.000  C
  C3       1.0000 0.21250  0.33050  0.72850  Biso   1.000  C
  C4       1.0000 0.15890  0.28810  0.77650  Biso   1.000  C
  C5       1.0000 0.72850  0.72850  0.33050  Biso   1.000  C
  C6       1.0000 0.77650  0.77650  0.28810  Biso   1.000  C
  C7       1.0000 0.72850  0.72850  0.21250  Biso   1.000  C
  C8       1.0000 0.77650  0.77650  0.15890  Biso   1.000  C
  C9       1.0000 0.33050  0.72850  0.72850  Biso   1.000  C
  C10      1.0000 0.28810  0.77650  0.77650  Biso   1.000  C
  C11      1.0000 0.21250  0.72850  0.72850  Biso   1.000  C
  C12      1.0000 0.15890  0.77650  0.77650  Biso   1.000  C
  C13      1.0000 0.72850  0.33050  0.21250  Biso   1.000  C
  C14      1.0000 0.77650  0.28810  0.15890  Biso   1.000  C
  C15      1.0000 0.72850  0.21250  0.33050  Biso   1.000  C
  C16      1.0000 0.77650  0.15890  0.28810  Biso   1.000  C
  C17      1.0000 0.33050  0.72850  0.21250  Biso   1.000  C
  C18      1.0000 0.28810  0.77650  0.15890  Biso   1.000  C
  C19      1.0000 0.21250  0.72850  0.33050  Biso   1.000  C
  C20      1.0000 0.15890  0.77650  0.28810  Biso   1.000  C
  C21      1.0000 0.72850  0.21250  0.72850  Biso   1.000  C
  C22      1.0000 0.77650  0.15890  0.77650  Biso   1.000  C
  C23      1.0000 0.72850  0.33050  0.72850  Biso   1.000  C
  C24      1.0000 0.77650  0.28810  0.77650  Biso   1.000  C
  C25      1.0000 0.30490  0.30490  0.69510  Biso   1.000  C
  C26      1.0000 0.20070  0.20070  0.79930  Biso   1.000  C
  C27      1.0000 0.13930  0.13930  0.86070  Biso   1.000  C
  C28      1.0000 0.36170  0.36170  0.63830  Biso   1.000  C
  C29      1.0000 0.69510  0.69510  0.30490  Biso   1.000  C
  C30      1.0000 0.79930  0.79930  0.20070  Biso   1.000  C
  C31      1.0000 0.86070  0.86070  0.13930  Biso   1.000  C
  C32      1.0000 0.63830  0.63830  0.36170  Biso   1.000  C
  C33      1.0000 0.30490  0.69510  0.69510  Biso   1.000  C
  C34      1.0000 0.20070  0.79930  0.79930  Biso   1.000  C
  C35      1.0000 0.13930  0.86070  0.86070  Biso   1.000  C
  C36      1.0000 0.36170  0.63830  0.63830  Biso   1.000  C
  C37      1.0000 0.69510  0.30490  0.30490  Biso   1.000  C
  C38      1.0000 0.79930  0.20070  0.20070  Biso   1.000  C
  C39      1.0000 0.86070  0.13930  0.13930  Biso   1.000  C
  C40      1.0000 0.63830  0.36170  0.36170  Biso   1.000  C
  C41      1.0000 0.30490  0.69510  0.30490  Biso   1.000  C
  C42      1.0000 0.20070  0.79930  0.20070  Biso   1.000  C
  C43      1.0000 0.13930  0.86070  0.13930  Biso   1.000  C
  C44      1.0000 0.36170  0.63830  0.36170  Biso   1.000  C
  C45      1.0000 0.69510  0.30490  0.69510  Biso   1.000  C
  C46      1.0000 0.79930  0.20070  0.79930  Biso   1.000  C
  C47      1.0000 0.86070  0.13930  0.86070  Biso   1.000  C
  C48      1.0000 0.63830  0.36170  0.63830  Biso   1.000  C
  O1       1.0000 0.17850  0.05170  0.88490  Biso   1.000  O
  O2       1.0000 0.44150  0.32470  0.61690  Biso   1.000  O
  O3       1.0000 0.05170  0.17850  0.88490  Biso   1.000  O
  O4       1.0000 0.32470  0.44150  0.61690  Biso   1.000  O
  O5       1.0000 0.88490  0.88490  0.17850  Biso   1.000  O
  O6       1.0000 0.61690  0.61690  0.44150  Biso   1.000  O
  O7       1.0000 0.88490  0.88490  0.05170  Biso   1.000  O
  O8       1.0000 0.61690  0.61690  0.32470  Biso   1.000  O
  O9       1.0000 0.17850  0.88490  0.88490  Biso   1.000  O
  O10      1.0000 0.44150  0.61690  0.61690  Biso   1.000  O
  O11      1.0000 0.05170  0.88490  0.88490  Biso   1.000  O
  O12      1.0000 0.32470  0.61690  0.61690  Biso   1.000  O
  O13      1.0000 0.88490  0.17850  0.05170  Biso   1.000  O
  O14      1.0000 0.61690  0.44150  0.32470  Biso   1.000  O
  O15      1.0000 0.88490  0.05170  0.17850  Biso   1.000  O
  O16      1.0000 0.61690  0.32470  0.44150  Biso   1.000  O
  O17      1.0000 0.17850  0.88490  0.05170  Biso   1.000  O
  O18      1.0000 0.44150  0.61690  0.32470  Biso   1.000  O
  O19      1.0000 0.05170  0.88490  0.17850  Biso   1.000  O
  O20      1.0000 0.32470  0.61690  0.44150  Biso   1.000  O
  O21      1.0000 0.88490  0.05170  0.88490  Biso   1.000  O
  O22      1.0000 0.61690  0.32470  0.61690  Biso   1.000  O
  O23      1.0000 0.88490  0.17850  0.88490  Biso   1.000  O
  O24      1.0000 0.61690  0.44150  0.61690  Biso   1.000  O
  O25      1.0000 0.00000  0.00000  0.00000  Biso   1.000  O
  O26      1.0000 0.50000  0.50000  0.50000  Biso   1.000  O
  Zn9      1.0000 0.68883  0.15547  0.65341  Biso   1.000  Zn
  Zn10     1.0000 0.68883  0.98195  0.65341  Biso   1.000  Zn
  Zn11     1.0000 0.86235  0.98195  0.65341  Biso   1.000  Zn
  Zn12     1.0000 0.68883  0.98195  0.82693  Biso   1.000  Zn
  Zn13     1.0000 0.27564  0.56876  0.24022  Biso   1.000  Zn
  Zn14     1.0000 0.27564  0.39504  0.24022  Biso   1.000  Zn
  Zn15     1.0000 0.27564  0.56876  0.06650  Biso   1.000  Zn
  Zn16     1.0000 0.10192  0.56876  0.24022  Biso   1.000  Zn
  H13      1.0000 0.43801  0.42853  0.40259  Biso   1.000  H
  H14      1.0000 0.43801  0.21053  0.40259  Biso   1.000  H
  H15      1.0000 0.13541  0.73113  0.88199  Biso   1.000  H
  H16      1.0000 0.91741  0.73113  0.09999  Biso   1.000  H
  H17      1.0000 0.13541  0.73113  0.40259  Biso   1.000  H
  H18      1.0000 0.91741  0.73113  0.40259  Biso   1.000  H
  H19      1.0000 0.43801  0.21053  0.09999  Biso   1.000  H
  H20      1.0000 0.43801  0.42853  0.88199  Biso   1.000  H
  H21      1.0000 0.43801  0.73113  0.09999  Biso   1.000  H
  H22      1.0000 0.43801  0.73113  0.88199  Biso   1.000  H
  H23      1.0000 0.91741  0.42853  0.40259  Biso   1.000  H
  H24      1.0000 0.13541  0.21053  0.40259  Biso   1.000  H
  C49      1.0000 0.50371  0.31283  0.46829  Biso   1.000  C
  C50      1.0000 0.45571  0.36643  0.42029  Biso   1.000  C
  C51      1.0000 0.50371  0.19483  0.46829  Biso   1.000  C
  C52      1.0000 0.45571  0.23723  0.42029  Biso   1.000  C
  C53      1.0000 0.01971  0.79683  0.86629  Biso   1.000  C
  C54      1.0000 0.07331  0.74883  0.90869  Biso   1.000  C
  C55      1.0000 0.90171  0.79683  0.98429  Biso   1.000  C
  C56      1.0000 0.94411  0.74883  0.03789  Biso   1.000  C
  C57      1.0000 0.01971  0.79683  0.46829  Biso   1.000  C
  C58      1.0000 0.07331  0.74883  0.42029  Biso   1.000  C
  C59      1.0000 0.90171  0.79683  0.46829  Biso   1.000  C
  C60      1.0000 0.94411  0.74883  0.42029  Biso   1.000  C
  C61      1.0000 0.50371  0.19483  0.98429  Biso   1.000  C
  C62      1.0000 0.45571  0.23723  0.03789  Biso   1.000  C
  C63      1.0000 0.50371  0.31283  0.86629  Biso   1.000  C
  C64      1.0000 0.45571  0.36643  0.90869  Biso   1.000  C
  C65      1.0000 0.50371  0.79683  0.98429  Biso   1.000  C
  C66      1.0000 0.45571  0.74883  0.03789  Biso   1.000  C
  C67      1.0000 0.50371  0.79683  0.86629  Biso   1.000  C
  C68      1.0000 0.45571  0.74883  0.90869  Biso   1.000  C
  C69      1.0000 0.90171  0.31283  0.46829  Biso   1.000  C
  C70      1.0000 0.94411  0.36643  0.42029  Biso   1.000  C
  C71      1.0000 0.01971  0.19483  0.46829  Biso   1.000  C
  C72      1.0000 0.07331  0.23723  0.42029  Biso   1.000  C
  C73      1.0000 0.53711  0.22043  0.50169  Biso   1.000  C
  C74      1.0000 0.43291  0.32463  0.39749  Biso   1.000  C
  C75      1.0000 0.37151  0.38603  0.33609  Biso   1.000  C
  C76      1.0000 0.59391  0.16363  0.55849  Biso   1.000  C
  C77      1.0000 0.92731  0.83023  0.89189  Biso   1.000  C
  C78      1.0000 0.03151  0.72603  0.99609  Biso   1.000  C
  C79      1.0000 0.09291  0.66463  0.05749  Biso   1.000  C
  C80      1.0000 0.87051  0.88703  0.83509  Biso   1.000  C
  C81      1.0000 0.92731  0.83023  0.50169  Biso   1.000  C
  C82      1.0000 0.03151  0.72603  0.39749  Biso   1.000  C
  C83      1.0000 0.09291  0.66463  0.33609  Biso   1.000  C
  C84      1.0000 0.87051  0.88703  0.55849  Biso   1.000  C
  C85      1.0000 0.53711  0.22043  0.89189  Biso   1.000  C
  C86      1.0000 0.43291  0.32463  0.99609  Biso   1.000  C
  C87      1.0000 0.37151  0.38603  0.05749  Biso   1.000  C
  C88      1.0000 0.59391  0.16363  0.83509  Biso   1.000  C
  C89      1.0000 0.53711  0.83023  0.89189  Biso   1.000  C
  C90      1.0000 0.43291  0.72603  0.99609  Biso   1.000  C
  C91      1.0000 0.37151  0.66463  0.05749  Biso   1.000  C
  C92      1.0000 0.59391  0.88703  0.83509  Biso   1.000  C
  C93      1.0000 0.92731  0.22043  0.50169  Biso   1.000  C
  C94      1.0000 0.03151  0.32463  0.39749  Biso   1.000  C
  C95      1.0000 0.09291  0.38603  0.33609  Biso   1.000  C
  C96      1.0000 0.87051  0.16363  0.55849  Biso   1.000  C
  O27      1.0000 0.34731  0.47363  0.31189  Biso   1.000  O
  O28      1.0000 0.61531  0.20063  0.57989  Biso   1.000  O
  O29      1.0000 0.34731  0.34683  0.31189  Biso   1.000  O
  O30      1.0000 0.61531  0.08383  0.57989  Biso   1.000  O
  O31      1.0000 0.18051  0.64043  0.01829  Biso   1.000  O
  O32      1.0000 0.90751  0.90843  0.75529  Biso   1.000  O
  O33      1.0000 0.05371  0.64043  0.14509  Biso   1.000  O
  O34      1.0000 0.79071  0.90843  0.87209  Biso   1.000  O
  O35      1.0000 0.18051  0.64043  0.31189  Biso   1.000  O
  O36      1.0000 0.90751  0.90843  0.57989  Biso   1.000  O
  O37      1.0000 0.05371  0.64043  0.31189  Biso   1.000  O
  O38      1.0000 0.79071  0.90843  0.57989  Biso   1.000  O
  O39      1.0000 0.34731  0.34683  0.14509  Biso   1.000  O
  O40      1.0000 0.61531  0.08383  0.87209  Biso   1.000  O
  O41      1.0000 0.34731  0.47363  0.01829  Biso   1.000  O
  O42      1.0000 0.61531  0.20063  0.75529  Biso   1.000  O
  O43      1.0000 0.34731  0.64043  0.14509  Biso   1.000  O
  O44      1.0000 0.61531  0.90843  0.87209  Biso   1.000  O
  O45      1.0000 0.34731  0.64043  0.01829  Biso   1.000  O
  O46      1.0000 0.61531  0.90843  0.75529  Biso   1.000  O
  O47      1.0000 0.05371  0.47363  0.31189  Biso   1.000  O
  O48      1.0000 0.79071  0.20063  0.57989  Biso   1.000  O
  O49      1.0000 0.18051  0.34683  0.31189  Biso   1.000  O
  O50      1.0000 0.90751  0.08383  0.57989  Biso   1.000  O
  O51      1.0000 0.23221  0.52533  0.19679  Biso   1.000  O
  O52      1.0000 0.73221  0.02533  0.69679  Biso   1.000  O
