data_image0
_cell_length_a       18.2016
_cell_length_b       18.2016
_cell_length_c       18.2016
_cell_angle_alpha    60
_cell_angle_beta     60
_cell_angle_gamma    60

_symmetry_space_group_name_H-M    "P 1"
_symmetry_int_tables_number       1

loop_
  _symmetry_equiv_pos_as_xyz
  'x, y, z'

loop_
  _atom_site_label
  _atom_site_occupancy
  _atom_site_fract_x
  _atom_site_fract_y
  _atom_site_fract_z
  _atom_site_thermal_displace_type
  _atom_site_B_iso_or_equiv
  _atom_site_type_symbol
  Zn1      1.0000 0.54338  0.36986  0.54338  Biso   1.000  Zn
  Zn2      1.0000 0.36986  0.54338  0.54338  Biso   1.000  Zn
  Zn3      1.0000 0.54338  0.54338  0.54338  Biso   1.000  Zn
  Zn4      1.0000 0.54338  0.54338  0.36986  Biso   1.000  Zn
  Zn5      1.0000 0.13029  0.95657  0.95657  Biso   1.000  Zn
  Zn6      1.0000 0.95657  0.13029  0.95657  Biso   1.000  Zn
  Zn7      1.0000 0.95657  0.95657  0.13029  Biso   1.000  Zn
  Zn8      1.0000 0.95657  0.95657  0.95657  Biso   1.000  Zn
  H1       1.0000 0.31480  0.09680  0.79420  Biso   1.000  H
  H2       1.0000 0.09680  0.31480  0.79420  Biso   1.000  H
  H3       1.0000 0.79420  0.79420  0.31480  Biso   1.000  H
  H4       1.0000 0.79420  0.79420  0.09680  Biso   1.000  H
  H5       1.0000 0.31480  0.79420  0.79420  Biso   1.000  H
  H6       1.0000 0.09680  0.79420  0.79420  Biso   1.000  H
  H7       1.0000 0.79420  0.31480  0.09680  Biso   1.000  H
  H8       1.0000 0.79420  0.09680  0.31480  Biso   1.000  H
  H9       1.0000 0.31480  0.79420  0.09680  Biso   1.000  H
  H10      1.0000 0.09680  0.79420  0.31480  Biso   1.000  H
  H11      1.0000 0.79420  0.09680  0.79420  Biso   1.000  H
  H12      1.0000 0.79420  0.31480  0.79420  Biso   1.000  H
  C1       1.0000 0.33050  0.21250  0.72850  Biso   1.000  C
  C2       1.0000 0.28810  0.15890  0.77650  Biso   1.000  C
  C3       1.0000 0.21250  0.33050  0.72850  Biso   1.000  C
  C4       1.0000 0.15890  0.28810  0.77650  Biso   1.000  C
  C5       1.0000 0.72850  0.72850  0.33050  Biso   1.000  C
  C6       1.0000 0.77650  0.77650  0.28810  Biso   1.000  C
  C7       1.0000 0.72850  0.72850  0.21250  Biso   1.000  C
  C8       1.0000 0.77650  0.77650  0.15890  Biso   1.000  C
  C9       1.0000 0.33050  0.72850  0.72850  Biso   1.000  C
  C10      1.0000 0.28810  0.77650  0.77650  Biso   1.000  C
  C11      1.0000 0.21250  0.72850  0.72850  Biso   1.000  C
  C12      1.0000 0.15890  0.77650  0.77650  Biso   1.000  C
  C13      1.0000 0.72850  0.33050  0.21250  Biso   1.000  C
  C14      1.0000 0.77650  0.28810  0.15890  Biso   1.000  C
  C15      1.0000 0.72850  0.21250  0.33050  Biso   1.000  C
  C16      1.0000 0.77650  0.15890  0.28810  Biso   1.000  C
  C17      1.0000 0.33050  0.72850  0.21250  Biso   1.000  C
  C18      1.0000 0.28810  0.77650  0.15890  Biso   1.000  C
  C19      1.0000 0.21250  0.72850  0.33050  Biso   1.000  C
  C20      1.0000 0.15890  0.77650  0.28810  Biso   1.000  C
  C21      1.0000 0.72850  0.21250  0.72850  Biso   1.000  C
  C22      1.0000 0.77650  0.15890  0.77650  Biso   1.000  C
  C23      1.0000 0.72850  0.33050  0.72850  Biso   1.000  C
  C24      1.0000 0.77650  0.28810  0.77650  Biso   1.000  C
  C25      1.0000 0.30490  0.30490  0.69510  Biso   1.000  C
  C26      1.0000 0.20070  0.20070  0.79930  Biso   1.000  C
  C27      1.0000 0.13930  0.13930  0.86070  Biso   1.000  C
  C28      1.0000 0.36170  0.36170  0.63830  Biso   1.000  C
  C29      1.0000 0.69510  0.69510  0.30490  Biso   1.000  C
  C30      1.0000 0.79930  0.79930  0.20070  Biso   1.000  C
  C31      1.0000 0.86070  0.86070  0.13930  Biso   1.000  C
  C32      1.0000 0.63830  0.63830  0.36170  Biso   1.000  C
  C33      1.0000 0.30490  0.69510  0.69510  Biso   1.000  C
  C34      1.0000 0.20070  0.79930  0.79930  Biso   1.000  C
  C35      1.0000 0.13930  0.86070  0.86070  Biso   1.000  C
  C36      1.0000 0.36170  0.63830  0.63830  Biso   1.000  C
  C37      1.0000 0.69510  0.30490  0.30490  Biso   1.000  C
  C38      1.0000 0.79930  0.20070  0.20070  Biso   1.000  C
  C39      1.0000 0.86070  0.13930  0.13930  Biso   1.000  C
  C40      1.0000 0.63830  0.36170  0.36170  Biso   1.000  C
  C41      1.0000 0.30490  0.69510  0.30490  Biso   1.000  C
  C42      1.0000 0.20070  0.79930  0.20070  Biso   1.000  C
  C43      1.0000 0.13930  0.86070  0.13930  Biso   1.000  C
  C44      1.0000 0.36170  0.63830  0.36170  Biso   1.000  C
  C45      1.0000 0.69510  0.30490  0.69510  Biso   1.000  C
  C46      1.0000 0.79930  0.20070  0.79930  Biso   1.000  C
  C47      1.0000 0.86070  0.13930  0.86070  Biso   1.000  C
  C48      1.0000 0.63830  0.36170  0.63830  Biso   1.000  C
  O1       1.0000 0.17850  0.05170  0.88490  Biso   1.000  O
  O2       1.0000 0.44150  0.32470  0.61690  Biso   1.000  O
  O3       1.0000 0.05170  0.17850  0.88490  Biso   1.000  O
  O4       1.0000 0.32470  0.44150  0.61690  Biso   1.000  O
  O5       1.0000 0.88490  0.88490  0.17850  Biso   1.000  O
  O6       1.0000 0.61690  0.61690  0.44150  Biso   1.000  O
  O7       1.0000 0.88490  0.88490  0.05170  Biso   1.000  O
  O8       1.0000 0.61690  0.61690  0.32470  Biso   1.000  O
  O9       1.0000 0.17850  0.88490  0.88490  Biso   1.000  O
  O10      1.0000 0.44150  0.61690  0.61690  Biso   1.000  O
  O11      1.0000 0.05170  0.88490  0.88490  Biso   1.000  O
  O12      1.0000 0.32470  0.61690  0.61690  Biso   1.000  O
  O13      1.0000 0.88490  0.17850  0.05170  Biso   1.000  O
  O14      1.0000 0.61690  0.44150  0.32470  Biso   1.000  O
  O15      1.0000 0.88490  0.05170  0.17850  Biso   1.000  O
  O16      1.0000 0.61690  0.32470  0.44150  Biso   1.000  O
  O17      1.0000 0.17850  0.88490  0.05170  Biso   1.000  O
  O18      1.0000 0.44150  0.61690  0.32470  Biso   1.000  O
  O19      1.0000 0.05170  0.88490  0.17850  Biso   1.000  O
  O20      1.0000 0.32470  0.61690  0.44150  Biso   1.000  O
  O21      1.0000 0.88490  0.05170  0.88490  Biso   1.000  O
  O22      1.0000 0.61690  0.32470  0.61690  Biso   1.000  O
  O23      1.0000 0.88490  0.17850  0.88490  Biso   1.000  O
  O24      1.0000 0.61690  0.44150  0.61690  Biso   1.000  O
  O25      1.0000 0.00000  0.00000  0.00000  Biso   1.000  O
  O26      1.0000 0.50000  0.50000  0.50000  Biso   1.000  O
  Zn9      1.0000 0.33747  0.31872  0.00000  Biso   1.000  Zn
  Zn10     1.0000 0.33747  0.31872  0.17546  Biso   1.000  Zn
  Zn11     1.0000 0.16201  0.31872  0.17546  Biso   1.000  Zn
  Zn12     1.0000 0.33747  0.14326  0.17546  Biso   1.000  Zn
  Zn13     1.0000 0.75455  0.73579  0.76799  Biso   1.000  Zn
  Zn14     1.0000 0.75456  0.73578  0.59253  Biso   1.000  Zn
  Zn15     1.0000 0.75455  0.91124  0.59254  Biso   1.000  Zn
  Zn16     1.0000 0.93002  0.73578  0.59253  Biso   1.000  Zn
  H13      1.0000 0.50048  0.48172  0.82307  Biso   1.000  H
  H14      1.0000 0.50048  0.48172  0.03598  Biso   1.000  H
  H15      1.0000 0.98509  0.17924  0.33846  Biso   1.000  H
  H16      1.0000 0.19801  0.96633  0.33846  Biso   1.000  H
  H17      1.0000 0.50048  0.96633  0.03598  Biso   1.000  H
  H18      1.0000 0.50048  0.17924  0.82307  Biso   1.000  H
  H19      1.0000 0.98509  0.48172  0.33846  Biso   1.000  H
  H20      1.0000 0.19801  0.48172  0.33846  Biso   1.000  H
  H21      1.0000 0.50048  0.17924  0.33846  Biso   1.000  H
  H22      1.0000 0.50048  0.96633  0.33846  Biso   1.000  H
  H23      1.0000 0.98509  0.48172  0.03598  Biso   1.000  H
  H24      1.0000 0.19801  0.48172  0.82307  Biso   1.000  H
  H25      1.0000 0.59155  0.57278  0.94492  Biso   1.000  H
  H26      1.0000 0.59155  0.57278  0.73200  Biso   1.000  H
  H27      1.0000 0.89403  0.08817  0.42953  Biso   1.000  H
  H28      1.0000 0.10694  0.87526  0.42953  Biso   1.000  H
  H29      1.0000 0.10694  0.57278  0.73200  Biso   1.000  H
  H30      1.0000 0.89403  0.57278  0.94492  Biso   1.000  H
  H31      1.0000 0.59155  0.08817  0.42953  Biso   1.000  H
  H32      1.0000 0.59155  0.87526  0.42953  Biso   1.000  H
  H33      1.0000 0.89403  0.57278  0.42953  Biso   1.000  H
  H34      1.0000 0.10694  0.57278  0.42953  Biso   1.000  H
  H35      1.0000 0.59155  0.08817  0.73200  Biso   1.000  H
  H36      1.0000 0.59155  0.87526  0.94492  Biso   1.000  H
  C49      1.0000 0.51890  0.50013  0.85017  Biso   1.000  C
  C50      1.0000 0.51890  0.50013  0.97205  Biso   1.000  C
  C51      1.0000 0.01219  0.11531  0.35688  Biso   1.000  C
  C52      1.0000 0.13408  0.99343  0.35688  Biso   1.000  C
  C53      1.0000 0.51890  0.99343  0.97205  Biso   1.000  C
  C54      1.0000 0.51890  0.11531  0.85017  Biso   1.000  C
  C55      1.0000 0.01219  0.50013  0.35688  Biso   1.000  C
  C56      1.0000 0.13408  0.50013  0.35688  Biso   1.000  C
  C57      1.0000 0.51890  0.11531  0.35688  Biso   1.000  C
  C58      1.0000 0.51890  0.99343  0.35688  Biso   1.000  C
  C59      1.0000 0.01219  0.50013  0.97205  Biso   1.000  C
  C60      1.0000 0.13408  0.50013  0.85017  Biso   1.000  C
  C61      1.0000 0.57313  0.55437  0.91782  Biso   1.000  C
  C62      1.0000 0.57313  0.55437  0.79593  Biso   1.000  C
  C63      1.0000 0.95796  0.06108  0.41111  Biso   1.000  C
  C64      1.0000 0.07984  0.93919  0.41111  Biso   1.000  C
  C65      1.0000 0.07984  0.55437  0.79593  Biso   1.000  C
  C66      1.0000 0.95795  0.55437  0.91782  Biso   1.000  C
  C67      1.0000 0.57313  0.06108  0.41111  Biso   1.000  C
  C68      1.0000 0.57313  0.93919  0.41111  Biso   1.000  C
  C69      1.0000 0.95796  0.55437  0.41111  Biso   1.000  C
  C70      1.0000 0.07984  0.55437  0.41111  Biso   1.000  C
  C71      1.0000 0.57313  0.06108  0.79593  Biso   1.000  C
  C72      1.0000 0.57313  0.93919  0.91782  Biso   1.000  C
  C73      1.0000 0.43344  0.41467  0.99177  Biso   1.000  C
  C74      1.0000 0.49174  0.47297  0.93347  Biso   1.000  C
  C75      1.0000 0.15379  0.13503  0.27141  Biso   1.000  C
  C76      1.0000 0.09549  0.07673  0.32972  Biso   1.000  C
  C77      1.0000 0.43344  0.13503  0.99177  Biso   1.000  C
  C78      1.0000 0.49174  0.07673  0.93347  Biso   1.000  C
  C79      1.0000 0.15379  0.41467  0.27141  Biso   1.000  C
  C80      1.0000 0.09549  0.47297  0.32972  Biso   1.000  C
  C81      1.0000 0.43344  0.13503  0.27141  Biso   1.000  C
  C82      1.0000 0.49174  0.07673  0.32972  Biso   1.000  C
  C83      1.0000 0.15379  0.41467  0.99177  Biso   1.000  C
  C84      1.0000 0.09549  0.47297  0.93347  Biso   1.000  C
  C85      1.0000 0.65860  0.63983  0.77621  Biso   1.000  C
  C86      1.0000 0.60029  0.58153  0.83452  Biso   1.000  C
  C87      1.0000 0.93824  0.91947  0.49657  Biso   1.000  C
  C88      1.0000 0.99654  0.97778  0.43827  Biso   1.000  C
  C89      1.0000 0.93824  0.63983  0.77621  Biso   1.000  C
  C90      1.0000 0.99654  0.58153  0.83452  Biso   1.000  C
  C91      1.0000 0.65860  0.91947  0.49657  Biso   1.000  C
  C92      1.0000 0.60029  0.97778  0.43827  Biso   1.000  C
  C93      1.0000 0.93824  0.63983  0.49657  Biso   1.000  C
  C94      1.0000 0.99654  0.58153  0.43827  Biso   1.000  C
  C95      1.0000 0.65860  0.91947  0.77621  Biso   1.000  C
  C96      1.0000 0.60029  0.97778  0.83452  Biso   1.000  C
  O27      1.0000 0.29362  0.27485  0.13159  Biso   1.000  O
  O28      1.0000 0.79842  0.77965  0.63639  Biso   1.000  O
  O29      1.0000 0.41093  0.39217  0.95275  Biso   1.000  O
  O30      1.0000 0.41093  0.39217  0.07580  Biso   1.000  O
  O31      1.0000 0.11477  0.21906  0.24891  Biso   1.000  O
  O32      1.0000 0.23782  0.09601  0.24891  Biso   1.000  O
  O33      1.0000 0.41093  0.09601  0.07580  Biso   1.000  O
  O34      1.0000 0.41093  0.21906  0.95275  Biso   1.000  O
  O35      1.0000 0.11477  0.39217  0.24891  Biso   1.000  O
  O36      1.0000 0.23782  0.39217  0.24891  Biso   1.000  O
  O37      1.0000 0.41093  0.21906  0.24891  Biso   1.000  O
  O38      1.0000 0.41093  0.09601  0.24891  Biso   1.000  O
  O39      1.0000 0.11477  0.39217  0.07580  Biso   1.000  O
  O40      1.0000 0.23782  0.39217  0.95275  Biso   1.000  O
  O41      1.0000 0.68110  0.66234  0.81524  Biso   1.000  O
  O42      1.0000 0.68110  0.66234  0.69218  Biso   1.000  O
  O43      1.0000 0.85421  0.95849  0.51908  Biso   1.000  O
  O44      1.0000 0.97726  0.83544  0.51908  Biso   1.000  O
  O45      1.0000 0.97726  0.66234  0.69218  Biso   1.000  O
  O46      1.0000 0.85421  0.66234  0.81524  Biso   1.000  O
  O47      1.0000 0.68110  0.95849  0.51908  Biso   1.000  O
  O48      1.0000 0.68110  0.83544  0.51908  Biso   1.000  O
  O49      1.0000 0.85421  0.66234  0.51908  Biso   1.000  O
  O50      1.0000 0.97726  0.66234  0.51908  Biso   1.000  O
  O51      1.0000 0.68110  0.95849  0.69218  Biso   1.000  O
  O52      1.0000 0.68110  0.83544  0.81524  Biso   1.000  O
