data_image0
_cell_length_a       18.2016
_cell_length_b       18.2016
_cell_length_c       18.2016
_cell_angle_alpha    60
_cell_angle_beta     60
_cell_angle_gamma    60

_symmetry_space_group_name_H-M    "P 1"
_symmetry_int_tables_number       1

loop_
  _symmetry_equiv_pos_as_xyz
  'x, y, z'

loop_
  _atom_site_label
  _atom_site_occupancy
  _atom_site_fract_x
  _atom_site_fract_y
  _atom_site_fract_z
  _atom_site_thermal_displace_type
  _atom_site_B_iso_or_equiv
  _atom_site_type_symbol
  C1       1.0000 0.54338  0.36986  0.54338  Biso   1.000  C
  C2       1.0000 0.36986  0.54338  0.54338  Biso   1.000  C
  C3       1.0000 0.54338  0.54338  0.54338  Biso   1.000  C
  C4       1.0000 0.54338  0.54338  0.36986  Biso   1.000  C
  C5       1.0000 0.13029  0.95657  0.95657  Biso   1.000  C
  C6       1.0000 0.95657  0.13029  0.95657  Biso   1.000  C
  C7       1.0000 0.95657  0.95657  0.13029  Biso   1.000  C
  C8       1.0000 0.95657  0.95657  0.95657  Biso   1.000  C
  C9       1.0000 0.31480  0.09680  0.79420  Biso   1.000  C
  C10      1.0000 0.09680  0.31480  0.79420  Biso   1.000  C
  C11      1.0000 0.79420  0.79420  0.31480  Biso   1.000  C
  C12      1.0000 0.79420  0.79420  0.09680  Biso   1.000  C
  C13      1.0000 0.31480  0.79420  0.79420  Biso   1.000  C
  C14      1.0000 0.09680  0.79420  0.79420  Biso   1.000  C
  C15      1.0000 0.79420  0.31480  0.09680  Biso   1.000  C
  C16      1.0000 0.79420  0.09680  0.31480  Biso   1.000  C
  C17      1.0000 0.31480  0.79420  0.09680  Biso   1.000  C
  C18      1.0000 0.09680  0.79420  0.31480  Biso   1.000  C
  C19      1.0000 0.79420  0.09680  0.79420  Biso   1.000  C
  C20      1.0000 0.79420  0.31480  0.79420  Biso   1.000  C
  C21      1.0000 0.33050  0.21250  0.72850  Biso   1.000  C
  C22      1.0000 0.28810  0.15890  0.77650  Biso   1.000  C
  C23      1.0000 0.21250  0.33050  0.72850  Biso   1.000  C
  C24      1.0000 0.15890  0.28810  0.77650  Biso   1.000  C
  C25      1.0000 0.72850  0.72850  0.33050  Biso   1.000  C
  C26      1.0000 0.77650  0.77650  0.28810  Biso   1.000  C
  C27      1.0000 0.72850  0.72850  0.21250  Biso   1.000  C
  C28      1.0000 0.77650  0.77650  0.15890  Biso   1.000  C
  C29      1.0000 0.33050  0.72850  0.72850  Biso   1.000  C
  C30      1.0000 0.28810  0.77650  0.77650  Biso   1.000  C
  C31      1.0000 0.21250  0.72850  0.72850  Biso   1.000  C
  C32      1.0000 0.15890  0.77650  0.77650  Biso   1.000  C
  C33      1.0000 0.72850  0.33050  0.21250  Biso   1.000  C
  C34      1.0000 0.77650  0.28810  0.15890  Biso   1.000  C
  C35      1.0000 0.72850  0.21250  0.33050  Biso   1.000  C
  C36      1.0000 0.77650  0.15890  0.28810  Biso   1.000  C
  C37      1.0000 0.33050  0.72850  0.21250  Biso   1.000  C
  C38      1.0000 0.28810  0.77650  0.15890  Biso   1.000  C
  C39      1.0000 0.21250  0.72850  0.33050  Biso   1.000  C
  C40      1.0000 0.15890  0.77650  0.28810  Biso   1.000  C
  C41      1.0000 0.72850  0.21250  0.72850  Biso   1.000  C
  C42      1.0000 0.77650  0.15890  0.77650  Biso   1.000  C
  C43      1.0000 0.72850  0.33050  0.72850  Biso   1.000  C
  C44      1.0000 0.77650  0.28810  0.77650  Biso   1.000  C
  C45      1.0000 0.30490  0.30490  0.69510  Biso   1.000  C
  C46      1.0000 0.20070  0.20070  0.79930  Biso   1.000  C
  C47      1.0000 0.13930  0.13930  0.86070  Biso   1.000  C
  C48      1.0000 0.36170  0.36170  0.63830  Biso   1.000  C
  C49      1.0000 0.69510  0.69510  0.30490  Biso   1.000  C
  C50      1.0000 0.79930  0.79930  0.20070  Biso   1.000  C
  C51      1.0000 0.86070  0.86070  0.13930  Biso   1.000  C
  C52      1.0000 0.63830  0.63830  0.36170  Biso   1.000  C
  C53      1.0000 0.30490  0.69510  0.69510  Biso   1.000  C
  C54      1.0000 0.20070  0.79930  0.79930  Biso   1.000  C
  C55      1.0000 0.13930  0.86070  0.86070  Biso   1.000  C
  C56      1.0000 0.36170  0.63830  0.63830  Biso   1.000  C
  C57      1.0000 0.69510  0.30490  0.30490  Biso   1.000  C
  C58      1.0000 0.79930  0.20070  0.20070  Biso   1.000  C
  C59      1.0000 0.86070  0.13930  0.13930  Biso   1.000  C
  C60      1.0000 0.63830  0.36170  0.36170  Biso   1.000  C
  C61      1.0000 0.30490  0.69510  0.30490  Biso   1.000  C
  C62      1.0000 0.20070  0.79930  0.20070  Biso   1.000  C
  C63      1.0000 0.13930  0.86070  0.13930  Biso   1.000  C
  C64      1.0000 0.36170  0.63830  0.36170  Biso   1.000  C
  C65      1.0000 0.69510  0.30490  0.69510  Biso   1.000  C
  C66      1.0000 0.79930  0.20070  0.79930  Biso   1.000  C
  C67      1.0000 0.86070  0.13930  0.86070  Biso   1.000  C
  C68      1.0000 0.63830  0.36170  0.63830  Biso   1.000  C
  C69      1.0000 0.17850  0.05170  0.88490  Biso   1.000  C
  C70      1.0000 0.44150  0.32470  0.61690  Biso   1.000  C
  C71      1.0000 0.05170  0.17850  0.88490  Biso   1.000  C
  C72      1.0000 0.32470  0.44150  0.61690  Biso   1.000  C
  C73      1.0000 0.88490  0.88490  0.17850  Biso   1.000  C
  C74      1.0000 0.61690  0.61690  0.44150  Biso   1.000  C
  C75      1.0000 0.88490  0.88490  0.05170  Biso   1.000  C
  C76      1.0000 0.61690  0.61690  0.32470  Biso   1.000  C
  C77      1.0000 0.17850  0.88490  0.88490  Biso   1.000  C
  C78      1.0000 0.44150  0.61690  0.61690  Biso   1.000  C
  C79      1.0000 0.05170  0.88490  0.88490  Biso   1.000  C
  C80      1.0000 0.32470  0.61690  0.61690  Biso   1.000  C
  C81      1.0000 0.88490  0.17850  0.05170  Biso   1.000  C
  C82      1.0000 0.61690  0.44150  0.32470  Biso   1.000  C
  C83      1.0000 0.88490  0.05170  0.17850  Biso   1.000  C
  C84      1.0000 0.61690  0.32470  0.44150  Biso   1.000  C
  C85      1.0000 0.17850  0.88490  0.05170  Biso   1.000  C
  C86      1.0000 0.44150  0.61690  0.32470  Biso   1.000  C
  C87      1.0000 0.05170  0.88490  0.17850  Biso   1.000  C
  C88      1.0000 0.32470  0.61690  0.44150  Biso   1.000  C
  C89      1.0000 0.88490  0.05170  0.88490  Biso   1.000  C
  C90      1.0000 0.61690  0.32470  0.61690  Biso   1.000  C
  C91      1.0000 0.88490  0.17850  0.88490  Biso   1.000  C
  C92      1.0000 0.61690  0.44150  0.61690  Biso   1.000  C
  C93      1.0000 0.00000  0.00000  0.00000  Biso   1.000  C
  C94      1.0000 0.50000  0.50000  0.50000  Biso   1.000  C
  O1       1.0000 0.93671  0.57956  0.74226  Biso   1.000  O
  O2       1.0000 0.34607  0.98890  0.33296  Biso   1.000  O
  O3       1.0000 0.17075  0.16422  0.33296  Biso   1.000  O
  O4       1.0000 0.76139  0.75488  0.74226  Biso   1.000  O
  O5       1.0000 0.76119  0.57936  0.91773  Biso   1.000  O
  O6       1.0000 0.76132  0.57949  0.74204  Biso   1.000  O
  O7       1.0000 0.34627  0.16442  0.15748  Biso   1.000  O
  O8       1.0000 0.34614  0.16429  0.33317  Biso   1.000  O
  O9       1.0000 0.59778  0.93330  0.88445  Biso   1.000  O
  O10      1.0000 0.59464  0.72150  0.09955  Biso   1.000  O
  O11      1.0000 0.60142  0.93131  0.58023  Biso   1.000  O
  O12      1.0000 0.60091  0.72032  0.57490  Biso   1.000  O
  O13      1.0000 0.11426  0.72092  0.58204  Biso   1.000  O
  O14      1.0000 0.99231  0.32784  0.19077  Biso   1.000  O
  O15      1.0000 0.20413  0.33097  0.97566  Biso   1.000  O
  O16      1.0000 0.99430  0.32421  0.49498  Biso   1.000  O
  O17      1.0000 0.20531  0.32471  0.50031  Biso   1.000  O
  O18      1.0000 0.20470  0.81137  0.49317  Biso   1.000  O
  O19      1.0000 0.50968  0.81048  0.19077  Biso   1.000  O
  O20      1.0000 0.51281  0.02229  0.97566  Biso   1.000  O
  O21      1.0000 0.50604  0.81247  0.49498  Biso   1.000  O
  O22      1.0000 0.50655  0.02346  0.50031  Biso   1.000  O
  O23      1.0000 0.99320  0.02286  0.49317  Biso   1.000  O
  O24      1.0000 0.11515  0.41594  0.88445  Biso   1.000  O
  O25      1.0000 0.90333  0.41281  0.09955  Biso   1.000  O
  O26      1.0000 0.11316  0.41958  0.58023  Biso   1.000  O
  O27      1.0000 0.90215  0.41907  0.57490  Biso   1.000  O
  O28      1.0000 0.90276  0.93242  0.58204  Biso   1.000  O
  O29      1.0000 0.59908  0.41725  0.88374  Biso   1.000  O
  O30      1.0000 0.59636  0.41452  0.10348  Biso   1.000  O
  O31      1.0000 0.50837  0.32654  0.19147  Biso   1.000  O
  O32      1.0000 0.51110  0.32926  0.97174  Biso   1.000  O
  O33      1.0000 0.66614  0.76464  0.92336  Biso   1.000  O
  O34      1.0000 0.60702  0.82195  0.98411  Biso   1.000  O
  O35      1.0000 0.58079  0.90666  0.94710  Biso   1.000  O
  O36      1.0000 0.57896  0.78404  0.07381  Biso   1.000  O
  O37      1.0000 0.66656  0.76345  0.64520  Biso   1.000  O
  O38      1.0000 0.61036  0.81946  0.58798  Biso   1.000  O
  O39      1.0000 0.58242  0.90547  0.56264  Biso   1.000  O
  O40      1.0000 0.58201  0.78266  0.55922  Biso   1.000  O
  O41      1.0000 0.08782  0.78336  0.56243  Biso   1.000  O
  O42      1.0000 0.16099  0.25947  0.15185  Biso   1.000  O
  O43      1.0000 0.10368  0.31860  0.09111  Biso   1.000  O
  O44      1.0000 0.01895  0.34484  0.12812  Biso   1.000  O
  O45      1.0000 0.14159  0.34666  0.00140  Biso   1.000  O
  O46      1.0000 0.16218  0.25906  0.43001  Biso   1.000  O
  O47      1.0000 0.10617  0.31526  0.48724  Biso   1.000  O
  O48      1.0000 0.02014  0.34321  0.51258  Biso   1.000  O
  O49      1.0000 0.14297  0.34361  0.51600  Biso   1.000  O
  O50      1.0000 0.14226  0.83781  0.51278  Biso   1.000  O
  O51      1.0000 0.44132  0.97914  0.15185  Biso   1.000  O
  O52      1.0000 0.50044  0.92183  0.09111  Biso   1.000  O
  O53      1.0000 0.52667  0.83713  0.12812  Biso   1.000  O
  O54      1.0000 0.52850  0.95974  0.00140  Biso   1.000  O
  O55      1.0000 0.44090  0.98033  0.43001  Biso   1.000  O
  O56      1.0000 0.49710  0.92432  0.48724  Biso   1.000  O
  O57      1.0000 0.52504  0.83832  0.51258  Biso   1.000  O
  O58      1.0000 0.52545  0.96112  0.51600  Biso   1.000  O
  O59      1.0000 0.01964  0.96042  0.51278  Biso   1.000  O
  O60      1.0000 0.94647  0.48431  0.92336  Biso   1.000  O
  O61      1.0000 0.00378  0.42519  0.98411  Biso   1.000  O
  O62      1.0000 0.08850  0.39894  0.94710  Biso   1.000  O
  O63      1.0000 0.96587  0.39713  0.07381  Biso   1.000  O
  O64      1.0000 0.94528  0.48473  0.64520  Biso   1.000  O
  O65      1.0000 0.00129  0.42852  0.58798  Biso   1.000  O
  O66      1.0000 0.08732  0.40057  0.56264  Biso   1.000  O
  O67      1.0000 0.96449  0.40017  0.55922  Biso   1.000  O
  O68      1.0000 0.96520  0.90597  0.56243  Biso   1.000  O
  O69      1.0000 0.66444  0.48260  0.93000  Biso   1.000  O
  O70      1.0000 0.60803  0.42619  0.98330  Biso   1.000  O
  O71      1.0000 0.58128  0.39945  0.94609  Biso   1.000  O
  O72      1.0000 0.57886  0.39703  0.07582  Biso   1.000  O
  O73      1.0000 0.94236  0.76054  0.65043  Biso   1.000  O
  O74      1.0000 0.00289  0.82107  0.58808  Biso   1.000  O
  O75      1.0000 0.44302  0.26118  0.14521  Biso   1.000  O
  O76      1.0000 0.49943  0.31759  0.09191  Biso   1.000  O
  O77      1.0000 0.52617  0.34434  0.12912  Biso   1.000  O
  O78      1.0000 0.52860  0.34676  0.99939  Biso   1.000  O
  O79      1.0000 0.16510  0.98325  0.42478  Biso   1.000  O
  O80      1.0000 0.10457  0.92272  0.48713  Biso   1.000  O
  O81      1.0000 0.68635  0.67847  0.96711  Biso   1.000  O
  O82      1.0000 0.68877  0.80537  0.84020  Biso   1.000  O
  O83      1.0000 0.68607  0.67738  0.67064  Biso   1.000  O
  O84      1.0000 0.68828  0.80387  0.66783  Biso   1.000  O
  O85      1.0000 0.98499  0.67708  0.67014  Biso   1.000  O
  O86      1.0000 0.24716  0.23926  0.10810  Biso   1.000  O
  O87      1.0000 0.12026  0.23684  0.23502  Biso   1.000  O
  O88      1.0000 0.24825  0.23955  0.40457  Biso   1.000  O
  O89      1.0000 0.12176  0.23734  0.40739  Biso   1.000  O
  O90      1.0000 0.24855  0.94062  0.40507  Biso   1.000  O
  O91      1.0000 0.42111  0.06531  0.10810  Biso   1.000  O
  O92      1.0000 0.41869  0.93841  0.23502  Biso   1.000  O
  O93      1.0000 0.42139  0.06640  0.40457  Biso   1.000  O
  O94      1.0000 0.41918  0.93991  0.40739  Biso   1.000  O
  O95      1.0000 0.12247  0.06671  0.40507  Biso   1.000  O
  O96      1.0000 0.86030  0.50452  0.96711  Biso   1.000  O
  O97      1.0000 0.98720  0.50694  0.84020  Biso   1.000  O
  O98      1.0000 0.85921  0.50423  0.67064  Biso   1.000  O
  O99      1.0000 0.98570  0.50645  0.66783  Biso   1.000  O
  O100     1.0000 0.85891  0.80317  0.67014  Biso   1.000  O
  O101     1.0000 0.80501  0.62318  0.78639  Biso   1.000  O
  O102     1.0000 0.68776  0.50593  0.96610  Biso   1.000  O
  O103     1.0000 0.68616  0.50433  0.84492  Biso   1.000  O
  O104     1.0000 0.30245  0.12061  0.28882  Biso   1.000  O
  O105     1.0000 0.41970  0.23786  0.10911  Biso   1.000  O
  O106     1.0000 0.42130  0.23946  0.23029  Biso   1.000  O
