data_image0
_cell_length_a       18.2016
_cell_length_b       18.2016
_cell_length_c       18.2016
_cell_angle_alpha    60
_cell_angle_beta     60
_cell_angle_gamma    60

_symmetry_space_group_name_H-M    "P 1"
_symmetry_int_tables_number       1

loop_
  _symmetry_equiv_pos_as_xyz
  'x, y, z'

loop_
  _atom_site_label
  _atom_site_occupancy
  _atom_site_fract_x
  _atom_site_fract_y
  _atom_site_fract_z
  _atom_site_thermal_displace_type
  _atom_site_B_iso_or_equiv
  _atom_site_type_symbol
  C1       1.0000 0.54338  0.36986  0.54338  Biso   1.000  C
  C2       1.0000 0.36986  0.54338  0.54338  Biso   1.000  C
  C3       1.0000 0.54338  0.54338  0.54338  Biso   1.000  C
  C4       1.0000 0.54338  0.54338  0.36986  Biso   1.000  C
  C5       1.0000 0.13029  0.95657  0.95657  Biso   1.000  C
  C6       1.0000 0.95657  0.13029  0.95657  Biso   1.000  C
  C7       1.0000 0.95657  0.95657  0.13029  Biso   1.000  C
  C8       1.0000 0.95657  0.95657  0.95657  Biso   1.000  C
  C9       1.0000 0.31480  0.09680  0.79420  Biso   1.000  C
  C10      1.0000 0.09680  0.31480  0.79420  Biso   1.000  C
  C11      1.0000 0.79420  0.79420  0.31480  Biso   1.000  C
  C12      1.0000 0.79420  0.79420  0.09680  Biso   1.000  C
  C13      1.0000 0.31480  0.79420  0.79420  Biso   1.000  C
  C14      1.0000 0.09680  0.79420  0.79420  Biso   1.000  C
  C15      1.0000 0.79420  0.31480  0.09680  Biso   1.000  C
  C16      1.0000 0.79420  0.09680  0.31480  Biso   1.000  C
  C17      1.0000 0.31480  0.79420  0.09680  Biso   1.000  C
  C18      1.0000 0.09680  0.79420  0.31480  Biso   1.000  C
  C19      1.0000 0.79420  0.09680  0.79420  Biso   1.000  C
  C20      1.0000 0.79420  0.31480  0.79420  Biso   1.000  C
  C21      1.0000 0.33050  0.21250  0.72850  Biso   1.000  C
  C22      1.0000 0.28810  0.15890  0.77650  Biso   1.000  C
  C23      1.0000 0.21250  0.33050  0.72850  Biso   1.000  C
  C24      1.0000 0.15890  0.28810  0.77650  Biso   1.000  C
  C25      1.0000 0.72850  0.72850  0.33050  Biso   1.000  C
  C26      1.0000 0.77650  0.77650  0.28810  Biso   1.000  C
  C27      1.0000 0.72850  0.72850  0.21250  Biso   1.000  C
  C28      1.0000 0.77650  0.77650  0.15890  Biso   1.000  C
  C29      1.0000 0.33050  0.72850  0.72850  Biso   1.000  C
  C30      1.0000 0.28810  0.77650  0.77650  Biso   1.000  C
  C31      1.0000 0.21250  0.72850  0.72850  Biso   1.000  C
  C32      1.0000 0.15890  0.77650  0.77650  Biso   1.000  C
  C33      1.0000 0.72850  0.33050  0.21250  Biso   1.000  C
  C34      1.0000 0.77650  0.28810  0.15890  Biso   1.000  C
  C35      1.0000 0.72850  0.21250  0.33050  Biso   1.000  C
  C36      1.0000 0.77650  0.15890  0.28810  Biso   1.000  C
  C37      1.0000 0.33050  0.72850  0.21250  Biso   1.000  C
  C38      1.0000 0.28810  0.77650  0.15890  Biso   1.000  C
  C39      1.0000 0.21250  0.72850  0.33050  Biso   1.000  C
  C40      1.0000 0.15890  0.77650  0.28810  Biso   1.000  C
  C41      1.0000 0.72850  0.21250  0.72850  Biso   1.000  C
  C42      1.0000 0.77650  0.15890  0.77650  Biso   1.000  C
  C43      1.0000 0.72850  0.33050  0.72850  Biso   1.000  C
  C44      1.0000 0.77650  0.28810  0.77650  Biso   1.000  C
  C45      1.0000 0.30490  0.30490  0.69510  Biso   1.000  C
  C46      1.0000 0.20070  0.20070  0.79930  Biso   1.000  C
  C47      1.0000 0.13930  0.13930  0.86070  Biso   1.000  C
  C48      1.0000 0.36170  0.36170  0.63830  Biso   1.000  C
  C49      1.0000 0.69510  0.69510  0.30490  Biso   1.000  C
  C50      1.0000 0.79930  0.79930  0.20070  Biso   1.000  C
  C51      1.0000 0.86070  0.86070  0.13930  Biso   1.000  C
  C52      1.0000 0.63830  0.63830  0.36170  Biso   1.000  C
  C53      1.0000 0.30490  0.69510  0.69510  Biso   1.000  C
  C54      1.0000 0.20070  0.79930  0.79930  Biso   1.000  C
  C55      1.0000 0.13930  0.86070  0.86070  Biso   1.000  C
  C56      1.0000 0.36170  0.63830  0.63830  Biso   1.000  C
  C57      1.0000 0.69510  0.30490  0.30490  Biso   1.000  C
  C58      1.0000 0.79930  0.20070  0.20070  Biso   1.000  C
  C59      1.0000 0.86070  0.13930  0.13930  Biso   1.000  C
  C60      1.0000 0.63830  0.36170  0.36170  Biso   1.000  C
  C61      1.0000 0.30490  0.69510  0.30490  Biso   1.000  C
  C62      1.0000 0.20070  0.79930  0.20070  Biso   1.000  C
  C63      1.0000 0.13930  0.86070  0.13930  Biso   1.000  C
  C64      1.0000 0.36170  0.63830  0.36170  Biso   1.000  C
  C65      1.0000 0.69510  0.30490  0.69510  Biso   1.000  C
  C66      1.0000 0.79930  0.20070  0.79930  Biso   1.000  C
  C67      1.0000 0.86070  0.13930  0.86070  Biso   1.000  C
  C68      1.0000 0.63830  0.36170  0.63830  Biso   1.000  C
  C69      1.0000 0.17850  0.05170  0.88490  Biso   1.000  C
  C70      1.0000 0.44150  0.32470  0.61690  Biso   1.000  C
  C71      1.0000 0.05170  0.17850  0.88490  Biso   1.000  C
  C72      1.0000 0.32470  0.44150  0.61690  Biso   1.000  C
  C73      1.0000 0.88490  0.88490  0.17850  Biso   1.000  C
  C74      1.0000 0.61690  0.61690  0.44150  Biso   1.000  C
  C75      1.0000 0.88490  0.88490  0.05170  Biso   1.000  C
  C76      1.0000 0.61690  0.61690  0.32470  Biso   1.000  C
  C77      1.0000 0.17850  0.88490  0.88490  Biso   1.000  C
  C78      1.0000 0.44150  0.61690  0.61690  Biso   1.000  C
  C79      1.0000 0.05170  0.88490  0.88490  Biso   1.000  C
  C80      1.0000 0.32470  0.61690  0.61690  Biso   1.000  C
  C81      1.0000 0.88490  0.17850  0.05170  Biso   1.000  C
  C82      1.0000 0.61690  0.44150  0.32470  Biso   1.000  C
  C83      1.0000 0.88490  0.05170  0.17850  Biso   1.000  C
  C84      1.0000 0.61690  0.32470  0.44150  Biso   1.000  C
  C85      1.0000 0.17850  0.88490  0.05170  Biso   1.000  C
  C86      1.0000 0.44150  0.61690  0.32470  Biso   1.000  C
  C87      1.0000 0.05170  0.88490  0.17850  Biso   1.000  C
  C88      1.0000 0.32470  0.61690  0.44150  Biso   1.000  C
  C89      1.0000 0.88490  0.05170  0.88490  Biso   1.000  C
  C90      1.0000 0.61690  0.32470  0.61690  Biso   1.000  C
  C91      1.0000 0.88490  0.17850  0.88490  Biso   1.000  C
  C92      1.0000 0.61690  0.44150  0.61690  Biso   1.000  C
  C93      1.0000 0.00000  0.00000  0.00000  Biso   1.000  C
  C94      1.0000 0.50000  0.50000  0.50000  Biso   1.000  C
  O1       1.0000 0.33650  0.31780  0.00000  Biso   1.000  O
  O2       1.0000 0.33650  0.31780  0.17493  Biso   1.000  O
  O3       1.0000 0.16157  0.31780  0.17493  Biso   1.000  O
  O4       1.0000 0.33650  0.14287  0.17493  Biso   1.000  O
  O5       1.0000 0.75093  0.73221  0.76427  Biso   1.000  O
  O6       1.0000 0.75093  0.73221  0.58934  Biso   1.000  O
  O7       1.0000 0.75093  0.90714  0.58934  Biso   1.000  O
  O8       1.0000 0.92586  0.73221  0.58934  Biso   1.000  O
  O9       1.0000 0.49955  0.48084  0.82018  Biso   1.000  O
  O10      1.0000 0.49955  0.48084  0.03242  Biso   1.000  O
  O11      1.0000 0.98176  0.17529  0.33797  Biso   1.000  O
  O12      1.0000 0.19400  0.96305  0.33797  Biso   1.000  O
  O13      1.0000 0.49955  0.96305  0.03242  Biso   1.000  O
  O14      1.0000 0.49955  0.17529  0.82018  Biso   1.000  O
  O15      1.0000 0.98176  0.48084  0.33797  Biso   1.000  O
  O16      1.0000 0.19400  0.48084  0.33797  Biso   1.000  O
  O17      1.0000 0.49955  0.17529  0.33797  Biso   1.000  O
  O18      1.0000 0.49955  0.96305  0.33797  Biso   1.000  O
  O19      1.0000 0.98176  0.48084  0.03242  Biso   1.000  O
  O20      1.0000 0.19400  0.48084  0.82018  Biso   1.000  O
  O21      1.0000 0.58788  0.56917  0.94409  Biso   1.000  O
  O22      1.0000 0.58788  0.56917  0.73185  Biso   1.000  O
  O23      1.0000 0.89343  0.08696  0.42630  Biso   1.000  O
  O24      1.0000 0.10567  0.87472  0.42630  Biso   1.000  O
  O25      1.0000 0.10567  0.56917  0.73185  Biso   1.000  O
  O26      1.0000 0.89343  0.56917  0.94409  Biso   1.000  O
  O27      1.0000 0.58788  0.08696  0.42630  Biso   1.000  O
  O28      1.0000 0.58788  0.87472  0.42630  Biso   1.000  O
  O29      1.0000 0.89343  0.56917  0.42630  Biso   1.000  O
  O30      1.0000 0.10567  0.56917  0.42630  Biso   1.000  O
  O31      1.0000 0.58788  0.08696  0.73185  Biso   1.000  O
  O32      1.0000 0.58788  0.87472  0.94409  Biso   1.000  O
  O33      1.0000 0.51722  0.49850  0.84708  Biso   1.000  O
  O34      1.0000 0.51722  0.49850  0.97019  Biso   1.000  O
  O35      1.0000 0.00866  0.11306  0.35564  Biso   1.000  O
  O36      1.0000 0.13177  0.98995  0.35564  Biso   1.000  O
  O37      1.0000 0.51722  0.98995  0.97019  Biso   1.000  O
  O38      1.0000 0.51722  0.11306  0.84708  Biso   1.000  O
  O39      1.0000 0.00866  0.49850  0.35564  Biso   1.000  O
  O40      1.0000 0.13177  0.49850  0.35564  Biso   1.000  O
  O41      1.0000 0.51722  0.11306  0.35564  Biso   1.000  O
  O42      1.0000 0.51722  0.98995  0.35564  Biso   1.000  O
  O43      1.0000 0.00866  0.49850  0.97019  Biso   1.000  O
  O44      1.0000 0.13177  0.49850  0.84708  Biso   1.000  O
  O45      1.0000 0.57021  0.55150  0.91719  Biso   1.000  O
  O46      1.0000 0.57021  0.55150  0.79408  Biso   1.000  O
  O47      1.0000 0.95566  0.06006  0.40864  Biso   1.000  O
  O48      1.0000 0.07877  0.93695  0.40864  Biso   1.000  O
  O49      1.0000 0.07877  0.55150  0.79408  Biso   1.000  O
  O50      1.0000 0.95566  0.55150  0.91719  Biso   1.000  O
  O51      1.0000 0.57021  0.06006  0.40864  Biso   1.000  O
  O52      1.0000 0.57021  0.93695  0.40864  Biso   1.000  O
  O53      1.0000 0.95566  0.55150  0.40864  Biso   1.000  O
  O54      1.0000 0.07877  0.55150  0.40864  Biso   1.000  O
  O55      1.0000 0.57021  0.06006  0.79408  Biso   1.000  O
  O56      1.0000 0.57021  0.93695  0.91719  Biso   1.000  O
  O57      1.0000 0.43189  0.41318  0.99207  Biso   1.000  O
  O58      1.0000 0.48981  0.47110  0.93415  Biso   1.000  O
  O59      1.0000 0.15365  0.13494  0.27032  Biso   1.000  O
  O60      1.0000 0.09573  0.07702  0.32823  Biso   1.000  O
  O61      1.0000 0.43189  0.13494  0.99207  Biso   1.000  O
  O62      1.0000 0.48981  0.07702  0.93415  Biso   1.000  O
  O63      1.0000 0.15365  0.41318  0.27032  Biso   1.000  O
  O64      1.0000 0.09573  0.47110  0.32823  Biso   1.000  O
  O65      1.0000 0.43189  0.13494  0.27032  Biso   1.000  O
  O66      1.0000 0.48981  0.07702  0.32823  Biso   1.000  O
  O67      1.0000 0.15365  0.41318  0.99207  Biso   1.000  O
  O68      1.0000 0.09573  0.47110  0.93415  Biso   1.000  O
  O69      1.0000 0.65554  0.63682  0.77220  Biso   1.000  O
  O70      1.0000 0.59762  0.57891  0.83012  Biso   1.000  O
  O71      1.0000 0.93378  0.91507  0.49396  Biso   1.000  O
  O72      1.0000 0.99170  0.97299  0.43604  Biso   1.000  O
  O73      1.0000 0.93378  0.63682  0.77220  Biso   1.000  O
  O74      1.0000 0.99170  0.57891  0.83012  Biso   1.000  O
  O75      1.0000 0.65554  0.91507  0.49396  Biso   1.000  O
  O76      1.0000 0.59762  0.97299  0.43604  Biso   1.000  O
  O77      1.0000 0.93378  0.63682  0.49396  Biso   1.000  O
  O78      1.0000 0.99170  0.57891  0.43604  Biso   1.000  O
  O79      1.0000 0.65554  0.91507  0.77220  Biso   1.000  O
  O80      1.0000 0.59762  0.97299  0.83012  Biso   1.000  O
  O81      1.0000 0.29277  0.27406  0.13119  Biso   1.000  O
  O82      1.0000 0.79466  0.77595  0.63308  Biso   1.000  O
  O83      1.0000 0.40926  0.39055  0.95376  Biso   1.000  O
  O84      1.0000 0.40926  0.39055  0.07565  Biso   1.000  O
  O85      1.0000 0.11533  0.21852  0.24768  Biso   1.000  O
  O86      1.0000 0.23723  0.09662  0.24768  Biso   1.000  O
  O87      1.0000 0.40926  0.09662  0.07565  Biso   1.000  O
  O88      1.0000 0.40926  0.21852  0.95376  Biso   1.000  O
  O89      1.0000 0.11533  0.39055  0.24768  Biso   1.000  O
  O90      1.0000 0.23723  0.39055  0.24768  Biso   1.000  O
  O91      1.0000 0.40926  0.21852  0.24768  Biso   1.000  O
  O92      1.0000 0.40926  0.09662  0.24768  Biso   1.000  O
  O93      1.0000 0.11533  0.39055  0.07565  Biso   1.000  O
  O94      1.0000 0.23723  0.39055  0.95376  Biso   1.000  O
  O95      1.0000 0.67817  0.65946  0.81052  Biso   1.000  O
  O96      1.0000 0.67817  0.65946  0.68862  Biso   1.000  O
  O97      1.0000 0.85020  0.95338  0.51659  Biso   1.000  O
  O98      1.0000 0.97209  0.83149  0.51659  Biso   1.000  O
  O99      1.0000 0.97209  0.65946  0.68862  Biso   1.000  O
  O100     1.0000 0.85020  0.65946  0.81052  Biso   1.000  O
  O101     1.0000 0.67817  0.95338  0.51659  Biso   1.000  O
  O102     1.0000 0.67817  0.83149  0.51659  Biso   1.000  O
  O103     1.0000 0.85020  0.65946  0.51659  Biso   1.000  O
  O104     1.0000 0.97209  0.65946  0.51659  Biso   1.000  O
  O105     1.0000 0.67817  0.95338  0.68862  Biso   1.000  O
  O106     1.0000 0.67817  0.83149  0.81052  Biso   1.000  O
