data_image0
_cell_length_a       18.2016
_cell_length_b       18.2016
_cell_length_c       18.2016
_cell_angle_alpha    60
_cell_angle_beta     60
_cell_angle_gamma    60

_symmetry_space_group_name_H-M    "P 1"
_symmetry_int_tables_number       1

loop_
  _symmetry_equiv_pos_as_xyz
  'x, y, z'

loop_
  _atom_site_label
  _atom_site_occupancy
  _atom_site_fract_x
  _atom_site_fract_y
  _atom_site_fract_z
  _atom_site_thermal_displace_type
  _atom_site_B_iso_or_equiv
  _atom_site_type_symbol
  Zn1      1.0000 0.54338  0.36986  0.54338  Biso   1.000  Zn
  Zn2      1.0000 0.36986  0.54338  0.54338  Biso   1.000  Zn
  Zn3      1.0000 0.54338  0.54338  0.54338  Biso   1.000  Zn
  Zn4      1.0000 0.54338  0.54338  0.36986  Biso   1.000  Zn
  Zn5      1.0000 0.13029  0.95657  0.95657  Biso   1.000  Zn
  Zn6      1.0000 0.95657  0.13029  0.95657  Biso   1.000  Zn
  Zn7      1.0000 0.95657  0.95657  0.13029  Biso   1.000  Zn
  Zn8      1.0000 0.95657  0.95657  0.95657  Biso   1.000  Zn
  H1       1.0000 0.31480  0.09680  0.79420  Biso   1.000  H
  H2       1.0000 0.09680  0.31480  0.79420  Biso   1.000  H
  H3       1.0000 0.79420  0.79420  0.31480  Biso   1.000  H
  H4       1.0000 0.79420  0.79420  0.09680  Biso   1.000  H
  H5       1.0000 0.31480  0.79420  0.79420  Biso   1.000  H
  H6       1.0000 0.09680  0.79420  0.79420  Biso   1.000  H
  H7       1.0000 0.79420  0.31480  0.09680  Biso   1.000  H
  H8       1.0000 0.79420  0.09680  0.31480  Biso   1.000  H
  H9       1.0000 0.31480  0.79420  0.09680  Biso   1.000  H
  H10      1.0000 0.09680  0.79420  0.31480  Biso   1.000  H
  H11      1.0000 0.79420  0.09680  0.79420  Biso   1.000  H
  H12      1.0000 0.79420  0.31480  0.79420  Biso   1.000  H
  C1       1.0000 0.33050  0.21250  0.72850  Biso   1.000  C
  C2       1.0000 0.28810  0.15890  0.77650  Biso   1.000  C
  C3       1.0000 0.21250  0.33050  0.72850  Biso   1.000  C
  C4       1.0000 0.15890  0.28810  0.77650  Biso   1.000  C
  C5       1.0000 0.72850  0.72850  0.33050  Biso   1.000  C
  C6       1.0000 0.77650  0.77650  0.28810  Biso   1.000  C
  C7       1.0000 0.72850  0.72850  0.21250  Biso   1.000  C
  C8       1.0000 0.77650  0.77650  0.15890  Biso   1.000  C
  C9       1.0000 0.33050  0.72850  0.72850  Biso   1.000  C
  C10      1.0000 0.28810  0.77650  0.77650  Biso   1.000  C
  C11      1.0000 0.21250  0.72850  0.72850  Biso   1.000  C
  C12      1.0000 0.15890  0.77650  0.77650  Biso   1.000  C
  C13      1.0000 0.72850  0.33050  0.21250  Biso   1.000  C
  C14      1.0000 0.77650  0.28810  0.15890  Biso   1.000  C
  C15      1.0000 0.72850  0.21250  0.33050  Biso   1.000  C
  C16      1.0000 0.77650  0.15890  0.28810  Biso   1.000  C
  C17      1.0000 0.33050  0.72850  0.21250  Biso   1.000  C
  C18      1.0000 0.28810  0.77650  0.15890  Biso   1.000  C
  C19      1.0000 0.21250  0.72850  0.33050  Biso   1.000  C
  C20      1.0000 0.15890  0.77650  0.28810  Biso   1.000  C
  C21      1.0000 0.72850  0.21250  0.72850  Biso   1.000  C
  C22      1.0000 0.77650  0.15890  0.77650  Biso   1.000  C
  C23      1.0000 0.72850  0.33050  0.72850  Biso   1.000  C
  C24      1.0000 0.77650  0.28810  0.77650  Biso   1.000  C
  C25      1.0000 0.30490  0.30490  0.69510  Biso   1.000  C
  C26      1.0000 0.20070  0.20070  0.79930  Biso   1.000  C
  C27      1.0000 0.13930  0.13930  0.86070  Biso   1.000  C
  C28      1.0000 0.36170  0.36170  0.63830  Biso   1.000  C
  C29      1.0000 0.69510  0.69510  0.30490  Biso   1.000  C
  C30      1.0000 0.79930  0.79930  0.20070  Biso   1.000  C
  C31      1.0000 0.86070  0.86070  0.13930  Biso   1.000  C
  C32      1.0000 0.63830  0.63830  0.36170  Biso   1.000  C
  C33      1.0000 0.30490  0.69510  0.69510  Biso   1.000  C
  C34      1.0000 0.20070  0.79930  0.79930  Biso   1.000  C
  C35      1.0000 0.13930  0.86070  0.86070  Biso   1.000  C
  C36      1.0000 0.36170  0.63830  0.63830  Biso   1.000  C
  C37      1.0000 0.69510  0.30490  0.30490  Biso   1.000  C
  C38      1.0000 0.79930  0.20070  0.20070  Biso   1.000  C
  C39      1.0000 0.86070  0.13930  0.13930  Biso   1.000  C
  C40      1.0000 0.63830  0.36170  0.36170  Biso   1.000  C
  C41      1.0000 0.30490  0.69510  0.30490  Biso   1.000  C
  C42      1.0000 0.20070  0.79930  0.20070  Biso   1.000  C
  C43      1.0000 0.13930  0.86070  0.13930  Biso   1.000  C
  C44      1.0000 0.36170  0.63830  0.36170  Biso   1.000  C
  C45      1.0000 0.69510  0.30490  0.69510  Biso   1.000  C
  C46      1.0000 0.79930  0.20070  0.79930  Biso   1.000  C
  C47      1.0000 0.86070  0.13930  0.86070  Biso   1.000  C
  C48      1.0000 0.63830  0.36170  0.63830  Biso   1.000  C
  O1       1.0000 0.17850  0.05170  0.88490  Biso   1.000  O
  O2       1.0000 0.44150  0.32470  0.61690  Biso   1.000  O
  O3       1.0000 0.05170  0.17850  0.88490  Biso   1.000  O
  O4       1.0000 0.32470  0.44150  0.61690  Biso   1.000  O
  O5       1.0000 0.88490  0.88490  0.17850  Biso   1.000  O
  O6       1.0000 0.61690  0.61690  0.44150  Biso   1.000  O
  O7       1.0000 0.88490  0.88490  0.05170  Biso   1.000  O
  O8       1.0000 0.61690  0.61690  0.32470  Biso   1.000  O
  O9       1.0000 0.17850  0.88490  0.88490  Biso   1.000  O
  O10      1.0000 0.44150  0.61690  0.61690  Biso   1.000  O
  O11      1.0000 0.05170  0.88490  0.88490  Biso   1.000  O
  O12      1.0000 0.32470  0.61690  0.61690  Biso   1.000  O
  O13      1.0000 0.88490  0.17850  0.05170  Biso   1.000  O
  O14      1.0000 0.61690  0.44150  0.32470  Biso   1.000  O
  O15      1.0000 0.88490  0.05170  0.17850  Biso   1.000  O
  O16      1.0000 0.61690  0.32470  0.44150  Biso   1.000  O
  O17      1.0000 0.17850  0.88490  0.05170  Biso   1.000  O
  O18      1.0000 0.44150  0.61690  0.32470  Biso   1.000  O
  O19      1.0000 0.05170  0.88490  0.17850  Biso   1.000  O
  O20      1.0000 0.32470  0.61690  0.44150  Biso   1.000  O
  O21      1.0000 0.88490  0.05170  0.88490  Biso   1.000  O
  O22      1.0000 0.61690  0.32470  0.61690  Biso   1.000  O
  O23      1.0000 0.88490  0.17850  0.88490  Biso   1.000  O
  O24      1.0000 0.61690  0.44150  0.61690  Biso   1.000  O
  O25      1.0000 0.00000  0.00000  0.00000  Biso   1.000  O
  O26      1.0000 0.50000  0.50000  0.50000  Biso   1.000  O
  Zn9      1.0000 0.91428  0.24484  0.92094  Biso   1.000  Zn
  Zn10     1.0000 0.91428  0.42116  0.92094  Biso   1.000  Zn
  Zn11     1.0000 0.73796  0.42116  0.92094  Biso   1.000  Zn
  Zn12     1.0000 0.91428  0.42116  0.74463  Biso   1.000  Zn
  Zn13     1.0000 0.34262  0.82750  0.32729  Biso   1.000  Zn
  Zn14     1.0000 0.34262  0.00382  0.32729  Biso   1.000  Zn
  Zn15     1.0000 0.51893  0.82750  0.32729  Biso   1.000  Zn
  Zn16     1.0000 0.34262  0.82750  0.50360  Biso   1.000  Zn
  H13      1.0000 0.78194  0.05791  0.08058  Biso   1.000  H
  H14      1.0000 0.07392  0.58079  0.78860  Biso   1.000  H
  H15      1.0000 0.55103  0.28882  0.08058  Biso   1.000  H
  H16      1.0000 0.07392  0.58079  0.55769  Biso   1.000  H
  H17      1.0000 0.55103  0.58079  0.78860  Biso   1.000  H
  H18      1.0000 0.07392  0.28882  0.08058  Biso   1.000  H
  H19      1.0000 0.78194  0.58079  0.55769  Biso   1.000  H
  H20      1.0000 0.07392  0.05791  0.08058  Biso   1.000  H
  H21      1.0000 0.07392  0.28882  0.55769  Biso   1.000  H
  H22      1.0000 0.78194  0.58079  0.08058  Biso   1.000  H
  H23      1.0000 0.07392  0.05791  0.78860  Biso   1.000  H
  H24      1.0000 0.55103  0.58079  0.08058  Biso   1.000  H
  H25      1.0000 0.47496  0.66786  0.16765  Biso   1.000  H
  H26      1.0000 0.18298  0.19075  0.45963  Biso   1.000  H
  H27      1.0000 0.70587  0.66786  0.16765  Biso   1.000  H
  H28      1.0000 0.18298  0.95984  0.69054  Biso   1.000  H
  H29      1.0000 0.70587  0.66786  0.45963  Biso   1.000  H
  H30      1.0000 0.18298  0.19075  0.16765  Biso   1.000  H
  H31      1.0000 0.47496  0.66786  0.69054  Biso   1.000  H
  H32      1.0000 0.18298  0.95984  0.16765  Biso   1.000  H
  H33      1.0000 0.18298  0.66786  0.69054  Biso   1.000  H
  H34      1.0000 0.47496  0.19075  0.16765  Biso   1.000  H
  H35      1.0000 0.18298  0.66786  0.45963  Biso   1.000  H
  H36      1.0000 0.70587  0.95984  0.16765  Biso   1.000  H
  C49      1.0000 0.71046  0.08470  0.10292  Biso   1.000  C
  C50      1.0000 0.09626  0.60314  0.71713  Biso   1.000  C
  C51      1.0000 0.57782  0.21734  0.10292  Biso   1.000  C
  C52      1.0000 0.09626  0.60314  0.58448  Biso   1.000  C
  C53      1.0000 0.57782  0.60314  0.71713  Biso   1.000  C
  C54      1.0000 0.09626  0.21734  0.10292  Biso   1.000  C
  C55      1.0000 0.71046  0.60314  0.58448  Biso   1.000  C
  C56      1.0000 0.09626  0.08470  0.10292  Biso   1.000  C
  C57      1.0000 0.09626  0.21734  0.58448  Biso   1.000  C
  C58      1.0000 0.71046  0.60314  0.10292  Biso   1.000  C
  C59      1.0000 0.09626  0.08470  0.71713  Biso   1.000  C
  C60      1.0000 0.57782  0.60314  0.10292  Biso   1.000  C
  C61      1.0000 0.54643  0.64552  0.14531  Biso   1.000  C
  C62      1.0000 0.16064  0.16396  0.53110  Biso   1.000  C
  C63      1.0000 0.67908  0.64552  0.14531  Biso   1.000  C
  C64      1.0000 0.16064  0.03132  0.66375  Biso   1.000  C
  C65      1.0000 0.67908  0.64552  0.53110  Biso   1.000  C
  C66      1.0000 0.16064  0.16396  0.14531  Biso   1.000  C
  C67      1.0000 0.54643  0.64552  0.66375  Biso   1.000  C
  C68      1.0000 0.16064  0.03132  0.14531  Biso   1.000  C
  C69      1.0000 0.16064  0.64552  0.66375  Biso   1.000  C
  C70      1.0000 0.54643  0.16396  0.14531  Biso   1.000  C
  C71      1.0000 0.16064  0.64552  0.53110  Biso   1.000  C
  C72      1.0000 0.67908  0.03132  0.14531  Biso   1.000  C
  C73      1.0000 0.72917  0.23604  0.01790  Biso   1.000  C
  C74      1.0000 0.67235  0.17923  0.07472  Biso   1.000  C
  C75      1.0000 0.01124  0.51811  0.73583  Biso   1.000  C
  C76      1.0000 0.06805  0.57493  0.67901  Biso   1.000  C
  C77      1.0000 0.72917  0.51811  0.73583  Biso   1.000  C
  C78      1.0000 0.67235  0.57493  0.67901  Biso   1.000  C
  C79      1.0000 0.01124  0.23604  0.01790  Biso   1.000  C
  C80      1.0000 0.06805  0.17923  0.07472  Biso   1.000  C
  C81      1.0000 0.01124  0.23604  0.73583  Biso   1.000  C
  C82      1.0000 0.06805  0.17923  0.67901  Biso   1.000  C
  C83      1.0000 0.72917  0.51811  0.01790  Biso   1.000  C
  C84      1.0000 0.67235  0.57493  0.07472  Biso   1.000  C
  C85      1.0000 0.52773  0.73054  0.23033  Biso   1.000  C
  C86      1.0000 0.58455  0.67373  0.17351  Biso   1.000  C
  C87      1.0000 0.24566  0.01261  0.51240  Biso   1.000  C
  C88      1.0000 0.18884  0.06943  0.56922  Biso   1.000  C
  C89      1.0000 0.52773  0.73054  0.51240  Biso   1.000  C
  C90      1.0000 0.58455  0.67373  0.56922  Biso   1.000  C
  C91      1.0000 0.24566  0.01261  0.23033  Biso   1.000  C
  C92      1.0000 0.18884  0.06943  0.17351  Biso   1.000  C
  C93      1.0000 0.24566  0.73054  0.51240  Biso   1.000  C
  C94      1.0000 0.18884  0.67373  0.56922  Biso   1.000  C
  C95      1.0000 0.52773  0.01261  0.23033  Biso   1.000  C
  C96      1.0000 0.58455  0.06943  0.17351  Biso   1.000  C
  O27      1.0000 0.87020  0.37708  0.87686  Biso   1.000  O
  O28      1.0000 0.38670  0.87158  0.37137  Biso   1.000  O
  O29      1.0000 0.81450  0.19682  0.99485  Biso   1.000  O
  O30      1.0000 0.98819  0.49506  0.82116  Biso   1.000  O
  O31      1.0000 0.68994  0.32137  0.99485  Biso   1.000  O
  O32      1.0000 0.98819  0.49506  0.69660  Biso   1.000  O
  O33      1.0000 0.68994  0.49506  0.82116  Biso   1.000  O
  O34      1.0000 0.98819  0.32137  0.99485  Biso   1.000  O
  O35      1.0000 0.81450  0.49506  0.69660  Biso   1.000  O
  O36      1.0000 0.98819  0.19682  0.99485  Biso   1.000  O
  O37      1.0000 0.98819  0.32137  0.69660  Biso   1.000  O
  O38      1.0000 0.81450  0.49506  0.99485  Biso   1.000  O
  O39      1.0000 0.98819  0.19682  0.82116  Biso   1.000  O
  O40      1.0000 0.68994  0.49506  0.99485  Biso   1.000  O
  O41      1.0000 0.44240  0.75360  0.25338  Biso   1.000  O
  O42      1.0000 0.26871  0.05184  0.42707  Biso   1.000  O
  O43      1.0000 0.56696  0.75360  0.25338  Biso   1.000  O
  O44      1.0000 0.26871  0.92728  0.55163  Biso   1.000  O
  O45      1.0000 0.56696  0.75360  0.42707  Biso   1.000  O
  O46      1.0000 0.26871  0.05184  0.25338  Biso   1.000  O
  O47      1.0000 0.44240  0.75360  0.55163  Biso   1.000  O
  O48      1.0000 0.26871  0.92728  0.25338  Biso   1.000  O
  O49      1.0000 0.26871  0.75360  0.55163  Biso   1.000  O
  O50      1.0000 0.44240  0.05184  0.25338  Biso   1.000  O
  O51      1.0000 0.26871  0.75360  0.42707  Biso   1.000  O
  O52      1.0000 0.56696  0.92728  0.25338  Biso   1.000  O
