data_image0
_cell_length_a       18.0897
_cell_length_b       18.0897
_cell_length_c       18.0897
_cell_angle_alpha    60
_cell_angle_beta     60
_cell_angle_gamma    60

_symmetry_space_group_name_H-M    "P 1"
_symmetry_int_tables_number       1

loop_
  _symmetry_equiv_pos_as_xyz
  'x, y, z'

loop_
  _atom_site_label
  _atom_site_occupancy
  _atom_site_fract_x
  _atom_site_fract_y
  _atom_site_fract_z
  _atom_site_thermal_displace_type
  _atom_site_B_iso_or_equiv
  _atom_site_type_symbol
  C1       1.0000 0.38110  0.20630  0.20630  Biso   1.000  C
  C2       1.0000 0.20630  0.38110  0.20630  Biso   1.000  C
  C3       1.0000 0.20630  0.20630  0.38110  Biso   1.000  C
  C4       1.0000 0.20630  0.20630  0.20630  Biso   1.000  C
  C5       1.0000 0.79370  0.61890  0.79370  Biso   1.000  C
  C6       1.0000 0.61890  0.79370  0.79370  Biso   1.000  C
  C7       1.0000 0.79370  0.79370  0.61890  Biso   1.000  C
  C8       1.0000 0.79370  0.79370  0.79370  Biso   1.000  C
  C9       1.0000 0.35200  0.04240  0.56320  Biso   1.000  C
  C10      1.0000 0.04240  0.35200  0.04240  Biso   1.000  C
  C11      1.0000 0.56320  0.04240  0.35200  Biso   1.000  C
  C12      1.0000 0.04240  0.56320  0.04240  Biso   1.000  C
  C13      1.0000 0.35200  0.56320  0.04240  Biso   1.000  C
  C14      1.0000 0.04240  0.04240  0.56320  Biso   1.000  C
  C15      1.0000 0.56320  0.35200  0.04240  Biso   1.000  C
  C16      1.0000 0.04240  0.04240  0.35200  Biso   1.000  C
  C17      1.0000 0.35200  0.04240  0.04240  Biso   1.000  C
  C18      1.0000 0.04240  0.56320  0.35200  Biso   1.000  C
  C19      1.0000 0.56320  0.04240  0.04240  Biso   1.000  C
  C20      1.0000 0.04240  0.35200  0.56320  Biso   1.000  C
  C21      1.0000 0.95760  0.64800  0.43680  Biso   1.000  C
  C22      1.0000 0.64800  0.95760  0.95760  Biso   1.000  C
  C23      1.0000 0.95760  0.43680  0.64800  Biso   1.000  C
  C24      1.0000 0.43680  0.95760  0.95760  Biso   1.000  C
  C25      1.0000 0.43680  0.64800  0.95760  Biso   1.000  C
  C26      1.0000 0.95760  0.95760  0.43680  Biso   1.000  C
  C27      1.0000 0.64800  0.43680  0.95760  Biso   1.000  C
  C28      1.0000 0.95760  0.95760  0.64800  Biso   1.000  C
  C29      1.0000 0.95760  0.64800  0.95760  Biso   1.000  C
  C30      1.0000 0.43680  0.95760  0.64800  Biso   1.000  C
  C31      1.0000 0.95760  0.43680  0.95760  Biso   1.000  C
  C32      1.0000 0.64800  0.95760  0.43680  Biso   1.000  C
  C33      1.0000 0.41430  0.02590  0.53390  Biso   1.000  C
  C34      1.0000 0.02590  0.41430  0.02590  Biso   1.000  C
  C35      1.0000 0.53390  0.02590  0.41430  Biso   1.000  C
  C36      1.0000 0.02590  0.53390  0.02590  Biso   1.000  C
  C37      1.0000 0.41430  0.53390  0.02590  Biso   1.000  C
  C38      1.0000 0.02590  0.02590  0.53390  Biso   1.000  C
  C39      1.0000 0.53390  0.41430  0.02590  Biso   1.000  C
  C40      1.0000 0.02590  0.02590  0.41430  Biso   1.000  C
  C41      1.0000 0.41430  0.02590  0.02590  Biso   1.000  C
  C42      1.0000 0.02590  0.53390  0.41430  Biso   1.000  C
  C43      1.0000 0.53390  0.02590  0.02590  Biso   1.000  C
  C44      1.0000 0.02590  0.41430  0.53390  Biso   1.000  C
  C45      1.0000 0.97410  0.58570  0.46610  Biso   1.000  C
  C46      1.0000 0.58570  0.97410  0.97410  Biso   1.000  C
  C47      1.0000 0.97410  0.46610  0.58570  Biso   1.000  C
  C48      1.0000 0.46610  0.97410  0.97410  Biso   1.000  C
  C49      1.0000 0.46610  0.58570  0.97410  Biso   1.000  C
  C50      1.0000 0.97410  0.97410  0.46610  Biso   1.000  C
  C51      1.0000 0.58570  0.46610  0.97410  Biso   1.000  C
  C52      1.0000 0.97410  0.97410  0.58570  Biso   1.000  C
  C53      1.0000 0.97410  0.58570  0.97410  Biso   1.000  C
  C54      1.0000 0.46610  0.97410  0.58570  Biso   1.000  C
  C55      1.0000 0.97410  0.46610  0.97410  Biso   1.000  C
  C56      1.0000 0.58570  0.97410  0.46610  Biso   1.000  C
  C57      1.0000 0.38580  0.11420  0.38580  Biso   1.000  C
  C58      1.0000 0.44340  0.05660  0.44340  Biso   1.000  C
  C59      1.0000 0.11420  0.38580  0.11420  Biso   1.000  C
  C60      1.0000 0.05660  0.44340  0.05660  Biso   1.000  C
  C61      1.0000 0.38580  0.38580  0.11420  Biso   1.000  C
  C62      1.0000 0.44340  0.44340  0.05660  Biso   1.000  C
  C63      1.0000 0.11420  0.11420  0.38580  Biso   1.000  C
  C64      1.0000 0.05660  0.05660  0.44340  Biso   1.000  C
  C65      1.0000 0.38580  0.11420  0.11420  Biso   1.000  C
  C66      1.0000 0.44340  0.05660  0.05660  Biso   1.000  C
  C67      1.0000 0.11420  0.38580  0.38580  Biso   1.000  C
  C68      1.0000 0.05660  0.44340  0.44340  Biso   1.000  C
  C69      1.0000 0.88580  0.61420  0.61420  Biso   1.000  C
  C70      1.0000 0.94340  0.55660  0.55660  Biso   1.000  C
  C71      1.0000 0.61420  0.88580  0.88580  Biso   1.000  C
  C72      1.0000 0.55660  0.94340  0.94340  Biso   1.000  C
  C73      1.0000 0.61420  0.61420  0.88580  Biso   1.000  C
  C74      1.0000 0.55660  0.55660  0.94340  Biso   1.000  C
  C75      1.0000 0.88580  0.88580  0.61420  Biso   1.000  C
  C76      1.0000 0.94340  0.94340  0.55660  Biso   1.000  C
  C77      1.0000 0.88580  0.61420  0.88580  Biso   1.000  C
  C78      1.0000 0.94340  0.55660  0.94340  Biso   1.000  C
  C79      1.0000 0.61420  0.88580  0.61420  Biso   1.000  C
  C80      1.0000 0.55660  0.94340  0.55660  Biso   1.000  C
  C81      1.0000 0.25000  0.25000  0.25000  Biso   1.000  C
  C82      1.0000 0.75000  0.75000  0.75000  Biso   1.000  C
  C83      1.0000 0.42610  0.13570  0.30250  Biso   1.000  C
  C84      1.0000 0.13570  0.42610  0.13570  Biso   1.000  C
  C85      1.0000 0.30250  0.13570  0.42610  Biso   1.000  C
  C86      1.0000 0.13570  0.30250  0.13570  Biso   1.000  C
  C87      1.0000 0.42610  0.30250  0.13570  Biso   1.000  C
  C88      1.0000 0.13570  0.13570  0.30250  Biso   1.000  C
  C89      1.0000 0.30250  0.42610  0.13570  Biso   1.000  C
  C90      1.0000 0.13570  0.13570  0.42610  Biso   1.000  C
  C91      1.0000 0.42610  0.13570  0.13570  Biso   1.000  C
  C92      1.0000 0.13570  0.30250  0.42610  Biso   1.000  C
  C93      1.0000 0.30250  0.13570  0.13570  Biso   1.000  C
  C94      1.0000 0.13570  0.42610  0.30250  Biso   1.000  C
  C95      1.0000 0.86430  0.57390  0.69750  Biso   1.000  C
  C96      1.0000 0.57390  0.86430  0.86430  Biso   1.000  C
  C97      1.0000 0.86430  0.69750  0.57390  Biso   1.000  C
  C98      1.0000 0.69750  0.86430  0.86430  Biso   1.000  C
  C99      1.0000 0.69750  0.57390  0.86430  Biso   1.000  C
  C100     1.0000 0.86430  0.86430  0.69750  Biso   1.000  C
  C101     1.0000 0.57390  0.69750  0.86430  Biso   1.000  C
  C102     1.0000 0.86430  0.86430  0.57390  Biso   1.000  C
  C103     1.0000 0.86430  0.57390  0.86430  Biso   1.000  C
  C104     1.0000 0.69750  0.86430  0.57390  Biso   1.000  C
  C105     1.0000 0.86430  0.69750  0.86430  Biso   1.000  C
  C106     1.0000 0.57390  0.86430  0.69750  Biso   1.000  C
  O1       1.0000 0.00300  0.00000  0.00000  Biso   1.000  O
  O2       1.0000 0.00301  0.99999  0.17714  Biso   1.000  O
  O3       1.0000 0.82587  1.00000  0.17713  Biso   1.000  O
  O4       1.0000 0.00301  0.82286  0.17714  Biso   1.000  O
  O5       1.0000 0.42248  0.41946  0.77373  Biso   1.000  O
  O6       1.0000 0.42247  0.41946  0.59660  Biso   1.000  O
  O7       1.0000 0.42248  0.59659  0.59660  Biso   1.000  O
  O8       1.0000 0.59961  0.41946  0.59659  Biso   1.000  O
  O9       1.0000 0.16794  0.16492  0.83038  Biso   1.000  O
  O10      1.0000 0.16794  0.16492  0.03297  Biso   1.000  O
  O11      1.0000 0.65626  0.85583  0.34206  Biso   1.000  O
  O12      1.0000 0.85885  0.65324  0.34206  Biso   1.000  O
  O13      1.0000 0.16794  0.65324  0.03297  Biso   1.000  O
  O14      1.0000 0.16794  0.85583  0.83038  Biso   1.000  O
  O15      1.0000 0.65626  0.16492  0.34206  Biso   1.000  O
  O16      1.0000 0.85885  0.16492  0.34206  Biso   1.000  O
  O17      1.0000 0.16794  0.85583  0.34206  Biso   1.000  O
  O18      1.0000 0.16794  0.65324  0.34206  Biso   1.000  O
  O19      1.0000 0.65626  0.16492  0.03297  Biso   1.000  O
  O20      1.0000 0.85885  0.16492  0.83038  Biso   1.000  O
  O21      1.0000 0.25755  0.25453  0.94335  Biso   1.000  O
  O22      1.0000 0.25755  0.25453  0.74076  Biso   1.000  O
  O23      1.0000 0.56664  0.76621  0.43167  Biso   1.000  O
  O24      1.0000 0.76924  0.56362  0.43167  Biso   1.000  O
  O25      1.0000 0.76924  0.25453  0.74076  Biso   1.000  O
  O26      1.0000 0.56664  0.25453  0.94335  Biso   1.000  O
  O27      1.0000 0.25755  0.76621  0.43167  Biso   1.000  O
  O28      1.0000 0.25755  0.56362  0.43167  Biso   1.000  O
  O29      1.0000 0.56664  0.25453  0.43167  Biso   1.000  O
  O30      1.0000 0.76924  0.25453  0.43167  Biso   1.000  O
  O31      1.0000 0.25755  0.76621  0.74076  Biso   1.000  O
  O32      1.0000 0.25755  0.56362  0.94335  Biso   1.000  O
  O33      1.0000 0.18592  0.18290  0.85757  Biso   1.000  O
  O34      1.0000 0.18592  0.18290  0.96981  Biso   1.000  O
  O35      1.0000 0.68345  0.79267  0.36004  Biso   1.000  O
  O36      1.0000 0.79569  0.68043  0.36004  Biso   1.000  O
  O37      1.0000 0.18592  0.68043  0.96981  Biso   1.000  O
  O38      1.0000 0.18592  0.79267  0.85757  Biso   1.000  O
  O39      1.0000 0.68345  0.18290  0.36004  Biso   1.000  O
  O40      1.0000 0.79569  0.18290  0.36004  Biso   1.000  O
  O41      1.0000 0.18592  0.79267  0.36004  Biso   1.000  O
  O42      1.0000 0.18592  0.68043  0.36004  Biso   1.000  O
  O43      1.0000 0.68345  0.18290  0.96981  Biso   1.000  O
  O44      1.0000 0.79569  0.18290  0.85757  Biso   1.000  O
  O45      1.0000 0.23957  0.23655  0.91616  Biso   1.000  O
  O46      1.0000 0.23957  0.23655  0.80392  Biso   1.000  O
  O47      1.0000 0.62980  0.73902  0.41369  Biso   1.000  O
  O48      1.0000 0.74205  0.62678  0.41369  Biso   1.000  O
  O49      1.0000 0.74205  0.23655  0.80392  Biso   1.000  O
  O50      1.0000 0.62980  0.23655  0.91616  Biso   1.000  O
  O51      1.0000 0.23957  0.73902  0.41369  Biso   1.000  O
  O52      1.0000 0.23957  0.62678  0.41369  Biso   1.000  O
  O53      1.0000 0.62980  0.23655  0.41369  Biso   1.000  O
  O54      1.0000 0.74205  0.23655  0.41369  Biso   1.000  O
  O55      1.0000 0.23957  0.73902  0.80392  Biso   1.000  O
  O56      1.0000 0.23957  0.62678  0.91616  Biso   1.000  O
  O57      1.0000 0.09956  0.09654  0.99202  Biso   1.000  O
  O58      1.0000 0.15829  0.15526  0.93330  Biso   1.000  O
  O59      1.0000 0.81790  0.81488  0.27368  Biso   1.000  O
  O60      1.0000 0.75918  0.75616  0.33240  Biso   1.000  O
  O61      1.0000 0.09956  0.81488  0.99202  Biso   1.000  O
  O62      1.0000 0.15829  0.75616  0.93330  Biso   1.000  O
  O63      1.0000 0.81790  0.09654  0.27368  Biso   1.000  O
  O64      1.0000 0.75918  0.15526  0.33240  Biso   1.000  O
  O65      1.0000 0.09956  0.81488  0.27368  Biso   1.000  O
  O66      1.0000 0.15829  0.75616  0.33240  Biso   1.000  O
  O67      1.0000 0.81790  0.09654  0.99202  Biso   1.000  O
  O68      1.0000 0.75918  0.15526  0.93330  Biso   1.000  O
  O69      1.0000 0.32594  0.32291  0.78171  Biso   1.000  O
  O70      1.0000 0.26721  0.26419  0.84044  Biso   1.000  O
  O71      1.0000 0.60759  0.60457  0.50005  Biso   1.000  O
  O72      1.0000 0.66632  0.66330  0.44133  Biso   1.000  O
  O73      1.0000 0.60759  0.32291  0.78171  Biso   1.000  O
  O74      1.0000 0.66632  0.26419  0.84044  Biso   1.000  O
  O75      1.0000 0.32594  0.60457  0.50005  Biso   1.000  O
  O76      1.0000 0.26721  0.66330  0.44133  Biso   1.000  O
  O77      1.0000 0.60759  0.32291  0.50005  Biso   1.000  O
  O78      1.0000 0.66632  0.26419  0.44133  Biso   1.000  O
  O79      1.0000 0.32594  0.60457  0.78171  Biso   1.000  O
  O80      1.0000 0.26721  0.66330  0.84044  Biso   1.000  O
  O81      1.0000 0.95873  0.95571  0.13285  Biso   1.000  O
  O82      1.0000 0.46676  0.46374  0.64088  Biso   1.000  O
  O83      1.0000 0.07663  0.07361  0.95341  Biso   1.000  O
  O84      1.0000 0.07663  0.07361  0.07648  Biso   1.000  O
  O85      1.0000 0.77929  0.89934  0.25075  Biso   1.000  O
  O86      1.0000 0.90236  0.77627  0.25075  Biso   1.000  O
  O87      1.0000 0.07663  0.77627  0.07648  Biso   1.000  O
  O88      1.0000 0.07663  0.89934  0.95341  Biso   1.000  O
  O89      1.0000 0.77929  0.07361  0.25075  Biso   1.000  O
  O90      1.0000 0.90236  0.07361  0.25075  Biso   1.000  O
  O91      1.0000 0.07663  0.89934  0.25075  Biso   1.000  O
  O92      1.0000 0.07663  0.77627  0.25075  Biso   1.000  O
  O93      1.0000 0.77929  0.07361  0.07648  Biso   1.000  O
  O94      1.0000 0.90236  0.07361  0.95341  Biso   1.000  O
  O95      1.0000 0.34886  0.34584  0.82032  Biso   1.000  O
  O96      1.0000 0.34886  0.34584  0.69725  Biso   1.000  O
  O97      1.0000 0.52313  0.64318  0.52298  Biso   1.000  O
  O98      1.0000 0.64620  0.52011  0.52298  Biso   1.000  O
  O99      1.0000 0.64620  0.34584  0.69725  Biso   1.000  O
  O100     1.0000 0.52313  0.34584  0.82032  Biso   1.000  O
  O101     1.0000 0.34886  0.64318  0.52298  Biso   1.000  O
  O102     1.0000 0.34886  0.52011  0.52298  Biso   1.000  O
  O103     1.0000 0.52313  0.34584  0.52298  Biso   1.000  O
  O104     1.0000 0.64620  0.34584  0.52298  Biso   1.000  O
  O105     1.0000 0.34886  0.64318  0.69725  Biso   1.000  O
  O106     1.0000 0.34886  0.52011  0.82032  Biso   1.000  O
