data_image0
_cell_length_a       18.0897
_cell_length_b       18.0897
_cell_length_c       18.0897
_cell_angle_alpha    60
_cell_angle_beta     60
_cell_angle_gamma    60

_symmetry_space_group_name_H-M    "P 1"
_symmetry_int_tables_number       1

loop_
  _symmetry_equiv_pos_as_xyz
  'x, y, z'

loop_
  _atom_site_label
  _atom_site_occupancy
  _atom_site_fract_x
  _atom_site_fract_y
  _atom_site_fract_z
  _atom_site_thermal_displace_type
  _atom_site_B_iso_or_equiv
  _atom_site_type_symbol
  Zn1      1.0000 0.38110  0.20630  0.20630  Biso   1.000  Zn
  Zn2      1.0000 0.20630  0.38110  0.20630  Biso   1.000  Zn
  Zn3      1.0000 0.20630  0.20630  0.38110  Biso   1.000  Zn
  Zn4      1.0000 0.20630  0.20630  0.20630  Biso   1.000  Zn
  Zn5      1.0000 0.79370  0.61890  0.79370  Biso   1.000  Zn
  Zn6      1.0000 0.61890  0.79370  0.79370  Biso   1.000  Zn
  Zn7      1.0000 0.79370  0.79370  0.61890  Biso   1.000  Zn
  Zn8      1.0000 0.79370  0.79370  0.79370  Biso   1.000  Zn
  H1       1.0000 0.35200  0.04240  0.56320  Biso   1.000  H
  H2       1.0000 0.04240  0.35200  0.04240  Biso   1.000  H
  H3       1.0000 0.56320  0.04240  0.35200  Biso   1.000  H
  H4       1.0000 0.04240  0.56320  0.04240  Biso   1.000  H
  H5       1.0000 0.35200  0.56320  0.04240  Biso   1.000  H
  H6       1.0000 0.04240  0.04240  0.56320  Biso   1.000  H
  H7       1.0000 0.56320  0.35200  0.04240  Biso   1.000  H
  H8       1.0000 0.04240  0.04240  0.35200  Biso   1.000  H
  H9       1.0000 0.35200  0.04240  0.04240  Biso   1.000  H
  H10      1.0000 0.04240  0.56320  0.35200  Biso   1.000  H
  H11      1.0000 0.56320  0.04240  0.04240  Biso   1.000  H
  H12      1.0000 0.04240  0.35200  0.56320  Biso   1.000  H
  H13      1.0000 0.95760  0.64800  0.43680  Biso   1.000  H
  H14      1.0000 0.64800  0.95760  0.95760  Biso   1.000  H
  H15      1.0000 0.95760  0.43680  0.64800  Biso   1.000  H
  H16      1.0000 0.43680  0.95760  0.95760  Biso   1.000  H
  H17      1.0000 0.43680  0.64800  0.95760  Biso   1.000  H
  H18      1.0000 0.95760  0.95760  0.43680  Biso   1.000  H
  H19      1.0000 0.64800  0.43680  0.95760  Biso   1.000  H
  H20      1.0000 0.95760  0.95760  0.64800  Biso   1.000  H
  H21      1.0000 0.95760  0.64800  0.95760  Biso   1.000  H
  H22      1.0000 0.43680  0.95760  0.64800  Biso   1.000  H
  H23      1.0000 0.95760  0.43680  0.95760  Biso   1.000  H
  H24      1.0000 0.64800  0.95760  0.43680  Biso   1.000  H
  C1       1.0000 0.41430  0.02590  0.53390  Biso   1.000  C
  C2       1.0000 0.02590  0.41430  0.02590  Biso   1.000  C
  C3       1.0000 0.53390  0.02590  0.41430  Biso   1.000  C
  C4       1.0000 0.02590  0.53390  0.02590  Biso   1.000  C
  C5       1.0000 0.41430  0.53390  0.02590  Biso   1.000  C
  C6       1.0000 0.02590  0.02590  0.53390  Biso   1.000  C
  C7       1.0000 0.53390  0.41430  0.02590  Biso   1.000  C
  C8       1.0000 0.02590  0.02590  0.41430  Biso   1.000  C
  C9       1.0000 0.41430  0.02590  0.02590  Biso   1.000  C
  C10      1.0000 0.02590  0.53390  0.41430  Biso   1.000  C
  C11      1.0000 0.53390  0.02590  0.02590  Biso   1.000  C
  C12      1.0000 0.02590  0.41430  0.53390  Biso   1.000  C
  C13      1.0000 0.97410  0.58570  0.46610  Biso   1.000  C
  C14      1.0000 0.58570  0.97410  0.97410  Biso   1.000  C
  C15      1.0000 0.97410  0.46610  0.58570  Biso   1.000  C
  C16      1.0000 0.46610  0.97410  0.97410  Biso   1.000  C
  C17      1.0000 0.46610  0.58570  0.97410  Biso   1.000  C
  C18      1.0000 0.97410  0.97410  0.46610  Biso   1.000  C
  C19      1.0000 0.58570  0.46610  0.97410  Biso   1.000  C
  C20      1.0000 0.97410  0.97410  0.58570  Biso   1.000  C
  C21      1.0000 0.97410  0.58570  0.97410  Biso   1.000  C
  C22      1.0000 0.46610  0.97410  0.58570  Biso   1.000  C
  C23      1.0000 0.97410  0.46610  0.97410  Biso   1.000  C
  C24      1.0000 0.58570  0.97410  0.46610  Biso   1.000  C
  C25      1.0000 0.38580  0.11420  0.38580  Biso   1.000  C
  C26      1.0000 0.44340  0.05660  0.44340  Biso   1.000  C
  C27      1.0000 0.11420  0.38580  0.11420  Biso   1.000  C
  C28      1.0000 0.05660  0.44340  0.05660  Biso   1.000  C
  C29      1.0000 0.38580  0.38580  0.11420  Biso   1.000  C
  C30      1.0000 0.44340  0.44340  0.05660  Biso   1.000  C
  C31      1.0000 0.11420  0.11420  0.38580  Biso   1.000  C
  C32      1.0000 0.05660  0.05660  0.44340  Biso   1.000  C
  C33      1.0000 0.38580  0.11420  0.11420  Biso   1.000  C
  C34      1.0000 0.44340  0.05660  0.05660  Biso   1.000  C
  C35      1.0000 0.11420  0.38580  0.38580  Biso   1.000  C
  C36      1.0000 0.05660  0.44340  0.44340  Biso   1.000  C
  C37      1.0000 0.88580  0.61420  0.61420  Biso   1.000  C
  C38      1.0000 0.94340  0.55660  0.55660  Biso   1.000  C
  C39      1.0000 0.61420  0.88580  0.88580  Biso   1.000  C
  C40      1.0000 0.55660  0.94340  0.94340  Biso   1.000  C
  C41      1.0000 0.61420  0.61420  0.88580  Biso   1.000  C
  C42      1.0000 0.55660  0.55660  0.94340  Biso   1.000  C
  C43      1.0000 0.88580  0.88580  0.61420  Biso   1.000  C
  C44      1.0000 0.94340  0.94340  0.55660  Biso   1.000  C
  C45      1.0000 0.88580  0.61420  0.88580  Biso   1.000  C
  C46      1.0000 0.94340  0.55660  0.94340  Biso   1.000  C
  C47      1.0000 0.61420  0.88580  0.61420  Biso   1.000  C
  C48      1.0000 0.55660  0.94340  0.55660  Biso   1.000  C
  O1       1.0000 0.25000  0.25000  0.25000  Biso   1.000  O
  O2       1.0000 0.75000  0.75000  0.75000  Biso   1.000  O
  O3       1.0000 0.42610  0.13570  0.30250  Biso   1.000  O
  O4       1.0000 0.13570  0.42610  0.13570  Biso   1.000  O
  O5       1.0000 0.30250  0.13570  0.42610  Biso   1.000  O
  O6       1.0000 0.13570  0.30250  0.13570  Biso   1.000  O
  O7       1.0000 0.42610  0.30250  0.13570  Biso   1.000  O
  O8       1.0000 0.13570  0.13570  0.30250  Biso   1.000  O
  O9       1.0000 0.30250  0.42610  0.13570  Biso   1.000  O
  O10      1.0000 0.13570  0.13570  0.42610  Biso   1.000  O
  O11      1.0000 0.42610  0.13570  0.13570  Biso   1.000  O
  O12      1.0000 0.13570  0.30250  0.42610  Biso   1.000  O
  O13      1.0000 0.30250  0.13570  0.13570  Biso   1.000  O
  O14      1.0000 0.13570  0.42610  0.30250  Biso   1.000  O
  O15      1.0000 0.86430  0.57390  0.69750  Biso   1.000  O
  O16      1.0000 0.57390  0.86430  0.86430  Biso   1.000  O
  O17      1.0000 0.86430  0.69750  0.57390  Biso   1.000  O
  O18      1.0000 0.69750  0.86430  0.86430  Biso   1.000  O
  O19      1.0000 0.69750  0.57390  0.86430  Biso   1.000  O
  O20      1.0000 0.86430  0.86430  0.69750  Biso   1.000  O
  O21      1.0000 0.57390  0.69750  0.86430  Biso   1.000  O
  O22      1.0000 0.86430  0.86430  0.57390  Biso   1.000  O
  O23      1.0000 0.86430  0.57390  0.86430  Biso   1.000  O
  O24      1.0000 0.69750  0.86430  0.57390  Biso   1.000  O
  O25      1.0000 0.86430  0.69750  0.86430  Biso   1.000  O
  O26      1.0000 0.57390  0.86430  0.69750  Biso   1.000  O
  Zn9      1.0000 1.00000  0.00000  0.00000  Biso   1.000  Zn
  Zn10     1.0000 0.40203  0.40201  0.59803  Biso   1.000  Zn
  Zn11     1.0000 0.22454  0.57951  0.59803  Biso   1.000  Zn
  Zn12     1.0000 0.82251  0.17749  0.00000  Biso   1.000  Zn
  Zn13     1.0000 0.82231  0.99980  0.17765  Biso   1.000  Zn
  Zn14     1.0000 0.82244  0.99993  0.99979  Biso   1.000  Zn
  Zn15     1.0000 0.40223  0.57971  0.42038  Biso   1.000  Zn
  Zn16     1.0000 0.40210  0.57958  0.59825  Biso   1.000  Zn
  H25      1.0000 0.65687  0.34572  0.14395  Biso   1.000  H
  H26      1.0000 0.65369  0.14370  0.36173  Biso   1.000  H
  H27      1.0000 0.66055  0.34370  0.83597  Biso   1.000  H
  H28      1.0000 0.66004  0.14250  0.83057  Biso   1.000  H
  H29      1.0000 0.16735  0.14311  0.83780  Biso   1.000  H
  H30      1.0000 0.05629  0.74516  0.45408  Biso   1.000  H
  H31      1.0000 0.25833  0.74833  0.23630  Biso   1.000  H
  H32      1.0000 0.05831  0.74148  0.76206  Biso   1.000  H
  H33      1.0000 0.25953  0.74199  0.76746  Biso   1.000  H
  H34      1.0000 0.25891  0.23468  0.76023  Biso   1.000  H
  H35      1.0000 0.56767  0.23378  0.45408  Biso   1.000  H
  H36      1.0000 0.57085  0.43581  0.23630  Biso   1.000  H
  H37      1.0000 0.56399  0.23580  0.76206  Biso   1.000  H
  H38      1.0000 0.56451  0.43700  0.76746  Biso   1.000  H
  H39      1.0000 0.05719  0.43639  0.76023  Biso   1.000  H
  H40      1.0000 0.16825  0.83435  0.14395  Biso   1.000  H
  H41      1.0000 0.96621  0.83118  0.36173  Biso   1.000  H
  H42      1.0000 0.16623  0.83803  0.83597  Biso   1.000  H
  H43      1.0000 0.96501  0.83752  0.83057  Biso   1.000  H
  H44      1.0000 0.96563  0.34482  0.83780  Biso   1.000  H
  H45      1.0000 0.65819  0.83567  0.14324  Biso   1.000  H
  H46      1.0000 0.65543  0.83291  0.36570  Biso   1.000  H
  H47      1.0000 0.56635  0.74383  0.45479  Biso   1.000  H
  H48      1.0000 0.56911  0.74659  0.23233  Biso   1.000  H
  C49      1.0000 0.72608  0.18738  0.18336  Biso   1.000  C
  C50      1.0000 0.66622  0.24540  0.24485  Biso   1.000  C
  C51      1.0000 0.63966  0.31874  0.20738  Biso   1.000  C
  C52      1.0000 0.63781  0.20702  0.33567  Biso   1.000  C
  C53      1.0000 0.72650  0.18617  0.90174  Biso   1.000  C
  C54      1.0000 0.66960  0.24288  0.84381  Biso   1.000  C
  C55      1.0000 0.64131  0.31754  0.81815  Biso   1.000  C
  C56      1.0000 0.64090  0.20562  0.81469  Biso   1.000  C
  C57      1.0000 0.14058  0.20633  0.81795  Biso   1.000  C
  C58      1.0000 0.21466  0.67594  0.41468  Biso   1.000  C
  C59      1.0000 0.15664  0.73580  0.35318  Biso   1.000  C
  C60      1.0000 0.08327  0.76236  0.39065  Biso   1.000  C
  C61      1.0000 0.19502  0.76420  0.26236  Biso   1.000  C
  C62      1.0000 0.21586  0.67552  0.69629  Biso   1.000  C
  C63      1.0000 0.15916  0.73242  0.75422  Biso   1.000  C
  C64      1.0000 0.08447  0.76072  0.77988  Biso   1.000  C
  C65      1.0000 0.19641  0.76112  0.78334  Biso   1.000  C
  C66      1.0000 0.19569  0.26146  0.78009  Biso   1.000  C
  C67      1.0000 0.49846  0.39213  0.41468  Biso   1.000  C
  C68      1.0000 0.55832  0.33411  0.35318  Biso   1.000  C
  C69      1.0000 0.58488  0.26076  0.39065  Biso   1.000  C
  C70      1.0000 0.58673  0.37249  0.26236  Biso   1.000  C
  C71      1.0000 0.49804  0.39333  0.69629  Biso   1.000  C
  C72      1.0000 0.55494  0.33663  0.75422  Biso   1.000  C
  C73      1.0000 0.58323  0.26196  0.77988  Biso   1.000  C
  C74      1.0000 0.58364  0.37389  0.78334  Biso   1.000  C
  C75      1.0000 0.08396  0.37317  0.78009  Biso   1.000  C
  C76      1.0000 0.00988  0.90357  0.18336  Biso   1.000  C
  C77      1.0000 0.06790  0.84371  0.24485  Biso   1.000  C
  C78      1.0000 0.14127  0.81714  0.20738  Biso   1.000  C
  C79      1.0000 0.02952  0.81530  0.33567  Biso   1.000  C
  C80      1.0000 0.00868  0.90399  0.90174  Biso   1.000  C
  C81      1.0000 0.06538  0.84709  0.84381  Biso   1.000  C
  C82      1.0000 0.14007  0.81879  0.81815  Biso   1.000  C
  C83      1.0000 0.02813  0.81838  0.81469  Biso   1.000  C
  C84      1.0000 0.02885  0.31805  0.81795  Biso   1.000  C
  C85      1.0000 0.72435  0.90184  0.19008  Biso   1.000  C
  C86      1.0000 0.66724  0.84473  0.24404  Biso   1.000  C
  C87      1.0000 0.64017  0.81765  0.20637  Biso   1.000  C
  C88      1.0000 0.63772  0.81520  0.33771  Biso   1.000  C
  C89      1.0000 0.00572  0.18322  0.90703  Biso   1.000  C
  C90      1.0000 0.06701  0.24450  0.84391  Biso   1.000  C
  C91      1.0000 0.50019  0.67767  0.40796  Biso   1.000  C
  C92      1.0000 0.55730  0.73478  0.35400  Biso   1.000  C
  C93      1.0000 0.58437  0.76186  0.39167  Biso   1.000  C
  C94      1.0000 0.58682  0.76431  0.26033  Biso   1.000  C
  C95      1.0000 0.21882  0.39629  0.69100  Biso   1.000  C
  C96      1.0000 0.15753  0.33500  0.75412  Biso   1.000  C
  O27      1.0000 0.74654  0.10014  0.22764  Biso   1.000  O
  O28      1.0000 0.74899  0.22861  0.09916  Biso   1.000  O
  O29      1.0000 0.74625  0.09903  0.92750  Biso   1.000  O
  O30      1.0000 0.74849  0.22709  0.92465  Biso   1.000  O
  O31      1.0000 0.04888  0.09873  0.92699  Biso   1.000  O
  O32      1.0000 0.30190  0.65548  0.37039  Biso   1.000  O
  O33      1.0000 0.17342  0.65303  0.49888  Biso   1.000  O
  O34      1.0000 0.30300  0.65577  0.67053  Biso   1.000  O
  O35      1.0000 0.17494  0.65353  0.67338  Biso   1.000  O
  O36      1.0000 0.30331  0.35313  0.67104  Biso   1.000  O
  O37      1.0000 0.47800  0.47937  0.37039  Biso   1.000  O
  O38      1.0000 0.47555  0.35090  0.49888  Biso   1.000  O
  O39      1.0000 0.47829  0.48047  0.67053  Biso   1.000  O
  O40      1.0000 0.47605  0.35241  0.67338  Biso   1.000  O
  O41      1.0000 0.17566  0.48078  0.67104  Biso   1.000  O
  O42      1.0000 0.92264  0.92403  0.22764  Biso   1.000  O
  O43      1.0000 0.05112  0.92648  0.09916  Biso   1.000  O
  O44      1.0000 0.92154  0.92374  0.92750  Biso   1.000  O
  O45      1.0000 0.04960  0.92598  0.92465  Biso   1.000  O
  O46      1.0000 0.92123  0.22638  0.92699  Biso   1.000  O
  O47      1.0000 0.86667  0.04416  0.04469  Biso   1.000  O
  O48      1.0000 0.74797  0.92545  0.22663  Biso   1.000  O
  O49      1.0000 0.74634  0.92383  0.10394  Biso   1.000  O
  O50      1.0000 0.35787  0.53535  0.55335  Biso   1.000  O
  O51      1.0000 0.47658  0.65405  0.37141  Biso   1.000  O
  O52      1.0000 0.47820  0.65568  0.49409  Biso   1.000  O
