data_image0
_cell_length_a       18.126
_cell_length_b       18.126
_cell_length_c       18.126
_cell_angle_alpha    60
_cell_angle_beta     60
_cell_angle_gamma    60

_symmetry_space_group_name_H-M    "P 1"
_symmetry_int_tables_number       1

loop_
  _symmetry_equiv_pos_as_xyz
  'x, y, z'

loop_
  _atom_site_label
  _atom_site_occupancy
  _atom_site_fract_x
  _atom_site_fract_y
  _atom_site_fract_z
  _atom_site_thermal_displace_type
  _atom_site_B_iso_or_equiv
  _atom_site_type_symbol
  Zn1      1.0000 0.04333  0.04333  0.04333  Biso   1.000  Zn
  Zn2      1.0000 0.04333  0.04333  0.87001  Biso   1.000  Zn
  Zn3      1.0000 0.04333  0.87001  0.04333  Biso   1.000  Zn
  Zn4      1.0000 0.87001  0.04333  0.04333  Biso   1.000  Zn
  Zn5      1.0000 0.45668  0.45668  0.62996  Biso   1.000  Zn
  Zn6      1.0000 0.45668  0.45668  0.45668  Biso   1.000  Zn
  Zn7      1.0000 0.62996  0.45668  0.45668  Biso   1.000  Zn
  Zn8      1.0000 0.45668  0.62996  0.45668  Biso   1.000  Zn
  H1       1.0000 0.29230  0.29230  0.81450  Biso   1.000  H
  H2       1.0000 0.29230  0.29230  0.60090  Biso   1.000  H
  H3       1.0000 0.81450  0.60090  0.29230  Biso   1.000  H
  H4       1.0000 0.60090  0.81450  0.29230  Biso   1.000  H
  H5       1.0000 0.29230  0.81450  0.60090  Biso   1.000  H
  H6       1.0000 0.29230  0.60090  0.81450  Biso   1.000  H
  H7       1.0000 0.81450  0.29230  0.29230  Biso   1.000  H
  H8       1.0000 0.60090  0.29230  0.29230  Biso   1.000  H
  H9       1.0000 0.29230  0.60090  0.29230  Biso   1.000  H
  H10      1.0000 0.29230  0.81450  0.29230  Biso   1.000  H
  H11      1.0000 0.81450  0.29230  0.60090  Biso   1.000  H
  H12      1.0000 0.60090  0.29230  0.81450  Biso   1.000  H
  C1       1.0000 0.22500  0.22500  0.83840  Biso   1.000  C
  C2       1.0000 0.27560  0.27560  0.78560  Biso   1.000  C
  C3       1.0000 0.22500  0.22500  0.71160  Biso   1.000  C
  C4       1.0000 0.27560  0.27560  0.66320  Biso   1.000  C
  C5       1.0000 0.83840  0.71160  0.22500  Biso   1.000  C
  C6       1.0000 0.78560  0.66320  0.27560  Biso   1.000  C
  C7       1.0000 0.71160  0.83840  0.22500  Biso   1.000  C
  C8       1.0000 0.66320  0.78560  0.27560  Biso   1.000  C
  C9       1.0000 0.22500  0.83840  0.71160  Biso   1.000  C
  C10      1.0000 0.27560  0.78560  0.66320  Biso   1.000  C
  C11      1.0000 0.22500  0.71160  0.83840  Biso   1.000  C
  C12      1.0000 0.27560  0.66320  0.78560  Biso   1.000  C
  C13      1.0000 0.83840  0.22500  0.22500  Biso   1.000  C
  C14      1.0000 0.78560  0.27560  0.27560  Biso   1.000  C
  C15      1.0000 0.71160  0.22500  0.22500  Biso   1.000  C
  C16      1.0000 0.66320  0.27560  0.27560  Biso   1.000  C
  C17      1.0000 0.22500  0.71160  0.22500  Biso   1.000  C
  C18      1.0000 0.27560  0.66320  0.27560  Biso   1.000  C
  C19      1.0000 0.22500  0.83840  0.22500  Biso   1.000  C
  C20      1.0000 0.27560  0.78560  0.27560  Biso   1.000  C
  C21      1.0000 0.83840  0.22500  0.71160  Biso   1.000  C
  C22      1.0000 0.78560  0.27560  0.66320  Biso   1.000  C
  C23      1.0000 0.71160  0.22500  0.83840  Biso   1.000  C
  C24      1.0000 0.66320  0.27560  0.78560  Biso   1.000  C
  C25      1.0000 0.13650  0.13650  0.86350  Biso   1.000  C
  C26      1.0000 0.20050  0.20050  0.79950  Biso   1.000  C
  C27      1.0000 0.35840  0.35840  0.64160  Biso   1.000  C
  C28      1.0000 0.30790  0.30790  0.69210  Biso   1.000  C
  C29      1.0000 0.86350  0.86350  0.13650  Biso   1.000  C
  C30      1.0000 0.79950  0.79950  0.20050  Biso   1.000  C
  C31      1.0000 0.64160  0.64160  0.35840  Biso   1.000  C
  C32      1.0000 0.69210  0.69210  0.30790  Biso   1.000  C
  C33      1.0000 0.13650  0.86350  0.86350  Biso   1.000  C
  C34      1.0000 0.20050  0.79950  0.79950  Biso   1.000  C
  C35      1.0000 0.35840  0.64160  0.64160  Biso   1.000  C
  C36      1.0000 0.30790  0.69210  0.69210  Biso   1.000  C
  C37      1.0000 0.86350  0.13650  0.13650  Biso   1.000  C
  C38      1.0000 0.79950  0.20050  0.20050  Biso   1.000  C
  C39      1.0000 0.64160  0.35840  0.35840  Biso   1.000  C
  C40      1.0000 0.69210  0.30790  0.30790  Biso   1.000  C
  C41      1.0000 0.13650  0.86350  0.13650  Biso   1.000  C
  C42      1.0000 0.20050  0.79950  0.20050  Biso   1.000  C
  C43      1.0000 0.35840  0.64160  0.35840  Biso   1.000  C
  C44      1.0000 0.30790  0.69210  0.30790  Biso   1.000  C
  C45      1.0000 0.86350  0.13650  0.86350  Biso   1.000  C
  C46      1.0000 0.79950  0.20050  0.79950  Biso   1.000  C
  C47      1.0000 0.64160  0.35840  0.64160  Biso   1.000  C
  C48      1.0000 0.69210  0.30790  0.69210  Biso   1.000  C
  O1       1.0000 0.50000  0.50000  0.50000  Biso   1.000  O
  O2       1.0000 0.00000  0.00000  0.00000  Biso   1.000  O
  O3       1.0000 0.11450  0.11450  0.94630  Biso   1.000  O
  O4       1.0000 0.38330  0.38330  0.67710  Biso   1.000  O
  O5       1.0000 0.11450  0.11450  0.82470  Biso   1.000  O
  O6       1.0000 0.38330  0.38330  0.55630  Biso   1.000  O
  O7       1.0000 0.94630  0.82470  0.11450  Biso   1.000  O
  O8       1.0000 0.67710  0.55630  0.38330  Biso   1.000  O
  O9       1.0000 0.82470  0.94630  0.11450  Biso   1.000  O
  O10      1.0000 0.55630  0.67710  0.38330  Biso   1.000  O
  O11      1.0000 0.11450  0.94630  0.82470  Biso   1.000  O
  O12      1.0000 0.38330  0.67710  0.55630  Biso   1.000  O
  O13      1.0000 0.11450  0.82470  0.94630  Biso   1.000  O
  O14      1.0000 0.38330  0.55630  0.67710  Biso   1.000  O
  O15      1.0000 0.94630  0.11450  0.11450  Biso   1.000  O
  O16      1.0000 0.67710  0.38330  0.38330  Biso   1.000  O
  O17      1.0000 0.82470  0.11450  0.11450  Biso   1.000  O
  O18      1.0000 0.55630  0.38330  0.38330  Biso   1.000  O
  O19      1.0000 0.11450  0.82470  0.11450  Biso   1.000  O
  O20      1.0000 0.38330  0.55630  0.38330  Biso   1.000  O
  O21      1.0000 0.11450  0.94630  0.11450  Biso   1.000  O
  O22      1.0000 0.38330  0.67710  0.38330  Biso   1.000  O
  O23      1.0000 0.94630  0.11450  0.82470  Biso   1.000  O
  O24      1.0000 0.67710  0.38330  0.55630  Biso   1.000  O
  O25      1.0000 0.82470  0.11450  0.94630  Biso   1.000  O
  O26      1.0000 0.55630  0.38330  0.67710  Biso   1.000  O
  Zn9      1.0000 0.33383  0.14177  0.18361  Biso   1.000  Zn
  Zn10     1.0000 0.16051  0.14177  0.35693  Biso   1.000  Zn
  Zn11     1.0000 0.16051  0.31509  0.18361  Biso   1.000  Zn
  Zn12     1.0000 0.16051  0.14177  0.18361  Biso   1.000  Zn
  Zn13     1.0000 0.74716  0.72842  0.59698  Biso   1.000  Zn
  Zn14     1.0000 0.57388  0.72842  0.77026  Biso   1.000  Zn
  Zn15     1.0000 0.74716  0.72842  0.77026  Biso   1.000  Zn
  Zn16     1.0000 0.74716  0.55514  0.77026  Biso   1.000  Zn
  H13      1.0000 0.60294  0.89280  0.41244  Biso   1.000  H
  H14      1.0000 0.38934  0.89280  0.62604  Biso   1.000  H
  H15      1.0000 0.91154  0.58420  0.93464  Biso   1.000  H
  H16      1.0000 0.91154  0.37060  0.93464  Biso   1.000  H
  H17      1.0000 0.91154  0.37060  0.62604  Biso   1.000  H
  H18      1.0000 0.91154  0.58420  0.41244  Biso   1.000  H
  H19      1.0000 0.60294  0.89280  0.93464  Biso   1.000  H
  H20      1.0000 0.38934  0.89280  0.93464  Biso   1.000  H
  H21      1.0000 0.38934  0.58420  0.93464  Biso   1.000  H
  H22      1.0000 0.60294  0.37060  0.93464  Biso   1.000  H
  H23      1.0000 0.91154  0.89280  0.62604  Biso   1.000  H
  H24      1.0000 0.91154  0.89280  0.41244  Biso   1.000  H
  C49      1.0000 0.49224  0.96010  0.38854  Biso   1.000  C
  C50      1.0000 0.54064  0.90950  0.44134  Biso   1.000  C
  C51      1.0000 0.36544  0.96010  0.51534  Biso   1.000  C
  C52      1.0000 0.41824  0.90950  0.56374  Biso   1.000  C
  C53      1.0000 0.97884  0.47350  0.00194  Biso   1.000  C
  C54      1.0000 0.92824  0.52190  0.95134  Biso   1.000  C
  C55      1.0000 0.97884  0.34670  0.00194  Biso   1.000  C
  C56      1.0000 0.92824  0.39950  0.95134  Biso   1.000  C
  C57      1.0000 0.97884  0.34670  0.51534  Biso   1.000  C
  C58      1.0000 0.92824  0.39950  0.56374  Biso   1.000  C
  C59      1.0000 0.97884  0.47350  0.38854  Biso   1.000  C
  C60      1.0000 0.92824  0.52190  0.44134  Biso   1.000  C
  C61      1.0000 0.49224  0.96010  0.00194  Biso   1.000  C
  C62      1.0000 0.54064  0.90950  0.95134  Biso   1.000  C
  C63      1.0000 0.36544  0.96010  0.00194  Biso   1.000  C
  C64      1.0000 0.41824  0.90950  0.95134  Biso   1.000  C
  C65      1.0000 0.36544  0.47350  0.00194  Biso   1.000  C
  C66      1.0000 0.41824  0.52190  0.95134  Biso   1.000  C
  C67      1.0000 0.49224  0.34670  0.00194  Biso   1.000  C
  C68      1.0000 0.54064  0.39950  0.95134  Biso   1.000  C
  C69      1.0000 0.97884  0.96010  0.51534  Biso   1.000  C
  C70      1.0000 0.92824  0.90950  0.56374  Biso   1.000  C
  C71      1.0000 0.97884  0.96010  0.38854  Biso   1.000  C
  C72      1.0000 0.92824  0.90950  0.44134  Biso   1.000  C
  C73      1.0000 0.34034  0.04860  0.36344  Biso   1.000  C
  C74      1.0000 0.40434  0.98460  0.42744  Biso   1.000  C
  C75      1.0000 0.56224  0.82670  0.58534  Biso   1.000  C
  C76      1.0000 0.51174  0.87720  0.53484  Biso   1.000  C
  C77      1.0000 0.06734  0.32160  0.09044  Biso   1.000  C
  C78      1.0000 0.00334  0.38560  0.02644  Biso   1.000  C
  C79      1.0000 0.84544  0.54350  0.86854  Biso   1.000  C
  C80      1.0000 0.89594  0.49300  0.91904  Biso   1.000  C
  C81      1.0000 0.06734  0.32160  0.36344  Biso   1.000  C
  C82      1.0000 0.00334  0.38560  0.42744  Biso   1.000  C
  C83      1.0000 0.84544  0.54350  0.58534  Biso   1.000  C
  C84      1.0000 0.89594  0.49300  0.53484  Biso   1.000  C
  C85      1.0000 0.34034  0.04860  0.09044  Biso   1.000  C
  C86      1.0000 0.40434  0.98460  0.02644  Biso   1.000  C
  C87      1.0000 0.56224  0.82670  0.86854  Biso   1.000  C
  C88      1.0000 0.51174  0.87720  0.91904  Biso   1.000  C
  C89      1.0000 0.34034  0.32160  0.09044  Biso   1.000  C
  C90      1.0000 0.40434  0.38560  0.02644  Biso   1.000  C
  C91      1.0000 0.56224  0.54350  0.86854  Biso   1.000  C
  C92      1.0000 0.51174  0.49300  0.91904  Biso   1.000  C
  C93      1.0000 0.06734  0.04860  0.36344  Biso   1.000  C
  C94      1.0000 0.00334  0.98460  0.42744  Biso   1.000  C
  C95      1.0000 0.84544  0.82670  0.58534  Biso   1.000  C
  C96      1.0000 0.89594  0.87720  0.53484  Biso   1.000  C
  O27      1.0000 0.70384  0.68510  0.72694  Biso   1.000  O
  O28      1.0000 0.20384  0.18510  0.22694  Biso   1.000  O
  O29      1.0000 0.37914  0.07060  0.28064  Biso   1.000  O
  O30      1.0000 0.64754  0.80180  0.54984  Biso   1.000  O
  O31      1.0000 0.25754  0.07060  0.40224  Biso   1.000  O
  O32      1.0000 0.52674  0.80180  0.67064  Biso   1.000  O
  O33      1.0000 0.08934  0.36040  0.11244  Biso   1.000  O
  O34      1.0000 0.82054  0.62880  0.84364  Biso   1.000  O
  O35      1.0000 0.08934  0.23880  0.11244  Biso   1.000  O
  O36      1.0000 0.82054  0.50800  0.84364  Biso   1.000  O
  O37      1.0000 0.08934  0.23880  0.40224  Biso   1.000  O
  O38      1.0000 0.82054  0.50800  0.67064  Biso   1.000  O
  O39      1.0000 0.08934  0.36040  0.28064  Biso   1.000  O
  O40      1.0000 0.82054  0.62880  0.54984  Biso   1.000  O
  O41      1.0000 0.37914  0.07060  0.11244  Biso   1.000  O
  O42      1.0000 0.64754  0.80180  0.84364  Biso   1.000  O
  O43      1.0000 0.25754  0.07060  0.11244  Biso   1.000  O
  O44      1.0000 0.52674  0.80180  0.84364  Biso   1.000  O
  O45      1.0000 0.25754  0.36040  0.11244  Biso   1.000  O
  O46      1.0000 0.52674  0.62880  0.84364  Biso   1.000  O
  O47      1.0000 0.37914  0.23880  0.11244  Biso   1.000  O
  O48      1.0000 0.64754  0.50800  0.84364  Biso   1.000  O
  O49      1.0000 0.08934  0.07060  0.40224  Biso   1.000  O
  O50      1.0000 0.82054  0.80180  0.67064  Biso   1.000  O
  O51      1.0000 0.08934  0.07060  0.28064  Biso   1.000  O
  O52      1.0000 0.82054  0.80180  0.54984  Biso   1.000  O
