data_image0
_cell_length_a       18.0897
_cell_length_b       18.0897
_cell_length_c       18.0897
_cell_angle_alpha    60
_cell_angle_beta     60
_cell_angle_gamma    60

_symmetry_space_group_name_H-M    "P 1"
_symmetry_int_tables_number       1

loop_
  _symmetry_equiv_pos_as_xyz
  'x, y, z'

loop_
  _atom_site_label
  _atom_site_occupancy
  _atom_site_fract_x
  _atom_site_fract_y
  _atom_site_fract_z
  _atom_site_thermal_displace_type
  _atom_site_B_iso_or_equiv
  _atom_site_type_symbol
  C1       1.0000 0.38110  0.20630  0.20630  Biso   1.000  C
  C2       1.0000 0.20630  0.38110  0.20630  Biso   1.000  C
  C3       1.0000 0.20630  0.20630  0.38110  Biso   1.000  C
  C4       1.0000 0.20630  0.20630  0.20630  Biso   1.000  C
  C5       1.0000 0.79370  0.61890  0.79370  Biso   1.000  C
  C6       1.0000 0.61890  0.79370  0.79370  Biso   1.000  C
  C7       1.0000 0.79370  0.79370  0.61890  Biso   1.000  C
  C8       1.0000 0.79370  0.79370  0.79370  Biso   1.000  C
  C9       1.0000 0.35200  0.04240  0.56320  Biso   1.000  C
  C10      1.0000 0.04240  0.35200  0.04240  Biso   1.000  C
  C11      1.0000 0.56320  0.04240  0.35200  Biso   1.000  C
  C12      1.0000 0.04240  0.56320  0.04240  Biso   1.000  C
  C13      1.0000 0.35200  0.56320  0.04240  Biso   1.000  C
  C14      1.0000 0.04240  0.04240  0.56320  Biso   1.000  C
  C15      1.0000 0.56320  0.35200  0.04240  Biso   1.000  C
  C16      1.0000 0.04240  0.04240  0.35200  Biso   1.000  C
  C17      1.0000 0.35200  0.04240  0.04240  Biso   1.000  C
  C18      1.0000 0.04240  0.56320  0.35200  Biso   1.000  C
  C19      1.0000 0.56320  0.04240  0.04240  Biso   1.000  C
  C20      1.0000 0.04240  0.35200  0.56320  Biso   1.000  C
  C21      1.0000 0.95760  0.64800  0.43680  Biso   1.000  C
  C22      1.0000 0.64800  0.95760  0.95760  Biso   1.000  C
  C23      1.0000 0.95760  0.43680  0.64800  Biso   1.000  C
  C24      1.0000 0.43680  0.95760  0.95760  Biso   1.000  C
  C25      1.0000 0.43680  0.64800  0.95760  Biso   1.000  C
  C26      1.0000 0.95760  0.95760  0.43680  Biso   1.000  C
  C27      1.0000 0.64800  0.43680  0.95760  Biso   1.000  C
  C28      1.0000 0.95760  0.95760  0.64800  Biso   1.000  C
  C29      1.0000 0.95760  0.64800  0.95760  Biso   1.000  C
  C30      1.0000 0.43680  0.95760  0.64800  Biso   1.000  C
  C31      1.0000 0.95760  0.43680  0.95760  Biso   1.000  C
  C32      1.0000 0.64800  0.95760  0.43680  Biso   1.000  C
  C33      1.0000 0.41430  0.02590  0.53390  Biso   1.000  C
  C34      1.0000 0.02590  0.41430  0.02590  Biso   1.000  C
  C35      1.0000 0.53390  0.02590  0.41430  Biso   1.000  C
  C36      1.0000 0.02590  0.53390  0.02590  Biso   1.000  C
  C37      1.0000 0.41430  0.53390  0.02590  Biso   1.000  C
  C38      1.0000 0.02590  0.02590  0.53390  Biso   1.000  C
  C39      1.0000 0.53390  0.41430  0.02590  Biso   1.000  C
  C40      1.0000 0.02590  0.02590  0.41430  Biso   1.000  C
  C41      1.0000 0.41430  0.02590  0.02590  Biso   1.000  C
  C42      1.0000 0.02590  0.53390  0.41430  Biso   1.000  C
  C43      1.0000 0.53390  0.02590  0.02590  Biso   1.000  C
  C44      1.0000 0.02590  0.41430  0.53390  Biso   1.000  C
  C45      1.0000 0.97410  0.58570  0.46610  Biso   1.000  C
  C46      1.0000 0.58570  0.97410  0.97410  Biso   1.000  C
  C47      1.0000 0.97410  0.46610  0.58570  Biso   1.000  C
  C48      1.0000 0.46610  0.97410  0.97410  Biso   1.000  C
  C49      1.0000 0.46610  0.58570  0.97410  Biso   1.000  C
  C50      1.0000 0.97410  0.97410  0.46610  Biso   1.000  C
  C51      1.0000 0.58570  0.46610  0.97410  Biso   1.000  C
  C52      1.0000 0.97410  0.97410  0.58570  Biso   1.000  C
  C53      1.0000 0.97410  0.58570  0.97410  Biso   1.000  C
  C54      1.0000 0.46610  0.97410  0.58570  Biso   1.000  C
  C55      1.0000 0.97410  0.46610  0.97410  Biso   1.000  C
  C56      1.0000 0.58570  0.97410  0.46610  Biso   1.000  C
  C57      1.0000 0.38580  0.11420  0.38580  Biso   1.000  C
  C58      1.0000 0.44340  0.05660  0.44340  Biso   1.000  C
  C59      1.0000 0.11420  0.38580  0.11420  Biso   1.000  C
  C60      1.0000 0.05660  0.44340  0.05660  Biso   1.000  C
  C61      1.0000 0.38580  0.38580  0.11420  Biso   1.000  C
  C62      1.0000 0.44340  0.44340  0.05660  Biso   1.000  C
  C63      1.0000 0.11420  0.11420  0.38580  Biso   1.000  C
  C64      1.0000 0.05660  0.05660  0.44340  Biso   1.000  C
  C65      1.0000 0.38580  0.11420  0.11420  Biso   1.000  C
  C66      1.0000 0.44340  0.05660  0.05660  Biso   1.000  C
  C67      1.0000 0.11420  0.38580  0.38580  Biso   1.000  C
  C68      1.0000 0.05660  0.44340  0.44340  Biso   1.000  C
  C69      1.0000 0.88580  0.61420  0.61420  Biso   1.000  C
  C70      1.0000 0.94340  0.55660  0.55660  Biso   1.000  C
  C71      1.0000 0.61420  0.88580  0.88580  Biso   1.000  C
  C72      1.0000 0.55660  0.94340  0.94340  Biso   1.000  C
  C73      1.0000 0.61420  0.61420  0.88580  Biso   1.000  C
  C74      1.0000 0.55660  0.55660  0.94340  Biso   1.000  C
  C75      1.0000 0.88580  0.88580  0.61420  Biso   1.000  C
  C76      1.0000 0.94340  0.94340  0.55660  Biso   1.000  C
  C77      1.0000 0.88580  0.61420  0.88580  Biso   1.000  C
  C78      1.0000 0.94340  0.55660  0.94340  Biso   1.000  C
  C79      1.0000 0.61420  0.88580  0.61420  Biso   1.000  C
  C80      1.0000 0.55660  0.94340  0.55660  Biso   1.000  C
  C81      1.0000 0.25000  0.25000  0.25000  Biso   1.000  C
  C82      1.0000 0.75000  0.75000  0.75000  Biso   1.000  C
  C83      1.0000 0.42610  0.13570  0.30250  Biso   1.000  C
  C84      1.0000 0.13570  0.42610  0.13570  Biso   1.000  C
  C85      1.0000 0.30250  0.13570  0.42610  Biso   1.000  C
  C86      1.0000 0.13570  0.30250  0.13570  Biso   1.000  C
  C87      1.0000 0.42610  0.30250  0.13570  Biso   1.000  C
  C88      1.0000 0.13570  0.13570  0.30250  Biso   1.000  C
  C89      1.0000 0.30250  0.42610  0.13570  Biso   1.000  C
  C90      1.0000 0.13570  0.13570  0.42610  Biso   1.000  C
  C91      1.0000 0.42610  0.13570  0.13570  Biso   1.000  C
  C92      1.0000 0.13570  0.30250  0.42610  Biso   1.000  C
  C93      1.0000 0.30250  0.13570  0.13570  Biso   1.000  C
  C94      1.0000 0.13570  0.42610  0.30250  Biso   1.000  C
  C95      1.0000 0.86430  0.57390  0.69750  Biso   1.000  C
  C96      1.0000 0.57390  0.86430  0.86430  Biso   1.000  C
  C97      1.0000 0.86430  0.69750  0.57390  Biso   1.000  C
  C98      1.0000 0.69750  0.86430  0.86430  Biso   1.000  C
  C99      1.0000 0.69750  0.57390  0.86430  Biso   1.000  C
  C100     1.0000 0.86430  0.86430  0.69750  Biso   1.000  C
  C101     1.0000 0.57390  0.69750  0.86430  Biso   1.000  C
  C102     1.0000 0.86430  0.86430  0.57390  Biso   1.000  C
  C103     1.0000 0.86430  0.57390  0.86430  Biso   1.000  C
  C104     1.0000 0.69750  0.86430  0.57390  Biso   1.000  C
  C105     1.0000 0.86430  0.69750  0.86430  Biso   1.000  C
  C106     1.0000 0.57390  0.86430  0.69750  Biso   1.000  C
  O1       1.0000 0.58835  0.41163  0.41160  Biso   1.000  O
  O2       1.0000 0.17762  0.82345  0.99864  Biso   1.000  O
  O3       1.0000 0.17762  0.99886  0.99864  Biso   1.000  O
  O4       1.0000 0.58835  0.58704  0.41160  Biso   1.000  O
  O5       1.0000 0.58831  0.41155  0.58723  Biso   1.000  O
  O6       1.0000 0.76353  0.41181  0.41147  Biso   1.000  O
  O7       1.0000 0.17766  0.99894  0.82301  Biso   1.000  O
  O8       1.0000 0.00244  0.99868  0.99877  Biso   1.000  O
  O9       1.0000 0.42341  0.25332  0.77093  Biso   1.000  O
  O10      1.0000 0.42245  0.25488  0.54939  Biso   1.000  O
  O11      1.0000 0.41953  0.54945  0.25569  Biso   1.000  O
  O12      1.0000 0.34256  0.85960  0.63931  Biso   1.000  O
  O13      1.0000 0.34352  0.63858  0.86085  Biso   1.000  O
  O14      1.0000 0.34644  0.63656  0.15455  Biso   1.000  O
  O15      1.0000 0.34256  0.15716  0.63931  Biso   1.000  O
  O16      1.0000 0.34352  0.15560  0.86085  Biso   1.000  O
  O17      1.0000 0.34644  0.86103  0.15455  Biso   1.000  O
  O18      1.0000 0.42341  0.55088  0.77093  Biso   1.000  O
  O19      1.0000 0.42245  0.77190  0.54939  Biso   1.000  O
  O20      1.0000 0.41953  0.77392  0.25569  Biso   1.000  O
  O21      1.0000 0.50026  0.32256  0.59175  Biso   1.000  O
  O22      1.0000 0.43558  0.25738  0.65163  Biso   1.000  O
  O23      1.0000 0.40759  0.23170  0.74430  Biso   1.000  O
  O24      1.0000 0.40764  0.23315  0.61328  Biso   1.000  O
  O25      1.0000 0.76446  0.32318  0.32328  Biso   1.000  O
  O26      1.0000 0.40602  0.61323  0.23176  Biso   1.000  O
  O27      1.0000 0.26572  0.82641  0.81850  Biso   1.000  O
  O28      1.0000 0.33039  0.75643  0.75862  Biso   1.000  O
  O29      1.0000 0.35838  0.79553  0.66595  Biso   1.000  O
  O30      1.0000 0.35834  0.66591  0.79697  Biso   1.000  O
  O31      1.0000 0.00152  0.82279  0.08696  Biso   1.000  O
  O32      1.0000 0.35996  0.66289  0.17849  Biso   1.000  O
  O33      1.0000 0.26572  0.08792  0.81850  Biso   1.000  O
  O34      1.0000 0.33039  0.15310  0.75862  Biso   1.000  O
  O35      1.0000 0.35838  0.17879  0.66595  Biso   1.000  O
  O36      1.0000 0.35834  0.17733  0.79697  Biso   1.000  O
  O37      1.0000 0.00152  0.08731  0.08696  Biso   1.000  O
  O38      1.0000 0.35996  0.79725  0.17849  Biso   1.000  O
  O39      1.0000 0.50026  0.58407  0.59175  Biso   1.000  O
  O40      1.0000 0.43558  0.65405  0.65163  Biso   1.000  O
  O41      1.0000 0.40759  0.61496  0.74430  Biso   1.000  O
  O42      1.0000 0.40764  0.74457  0.61328  Biso   1.000  O
  O43      1.0000 0.76446  0.58769  0.32328  Biso   1.000  O
  O44      1.0000 0.40602  0.74759  0.23176  Biso   1.000  O
  O45      1.0000 0.76247  0.32226  0.59165  Biso   1.000  O
  O46      1.0000 0.49684  0.58879  0.32418  Biso   1.000  O
  O47      1.0000 0.43536  0.65428  0.25469  Biso   1.000  O
  O48      1.0000 0.00351  0.08822  0.81860  Biso   1.000  O
  O49      1.0000 0.26914  0.82169  0.08606  Biso   1.000  O
  O50      1.0000 0.33061  0.75621  0.15555  Biso   1.000  O
  O51      1.0000 0.51788  0.33898  0.63601  Biso   1.000  O
  O52      1.0000 0.51587  0.33818  0.50823  Biso   1.000  O
  O53      1.0000 0.81412  0.33879  0.33970  Biso   1.000  O
  O54      1.0000 0.68266  0.33859  0.33960  Biso   1.000  O
  O55      1.0000 0.51666  0.50649  0.33800  Biso   1.000  O
  O56      1.0000 0.24809  0.90470  0.77424  Biso   1.000  O
  O57      1.0000 0.25010  0.77414  0.90201  Biso   1.000  O
  O58      1.0000 0.95186  0.90449  0.07054  Biso   1.000  O
  O59      1.0000 0.08331  0.77273  0.07064  Biso   1.000  O
  O60      1.0000 0.24931  0.77303  0.07224  Biso   1.000  O
  O61      1.0000 0.24809  0.07150  0.77424  Biso   1.000  O
  O62      1.0000 0.25010  0.07230  0.90201  Biso   1.000  O
  O63      1.0000 0.95186  0.07169  0.07054  Biso   1.000  O
  O64      1.0000 0.08331  0.07189  0.07064  Biso   1.000  O
  O65      1.0000 0.24931  0.90399  0.07224  Biso   1.000  O
  O66      1.0000 0.51788  0.50578  0.63601  Biso   1.000  O
  O67      1.0000 0.51587  0.63634  0.50823  Biso   1.000  O
  O68      1.0000 0.81412  0.50599  0.33970  Biso   1.000  O
  O69      1.0000 0.68266  0.63775  0.33960  Biso   1.000  O
  O70      1.0000 0.51666  0.63745  0.33800  Biso   1.000  O
  O71      1.0000 0.63070  0.45683  0.45426  Biso   1.000  O
  O72      1.0000 0.68298  0.33908  0.63751  Biso   1.000  O
  O73      1.0000 0.81383  0.33919  0.50643  Biso   1.000  O
  O74      1.0000 0.13527  0.95365  0.95598  Biso   1.000  O
  O75      1.0000 0.08300  0.07140  0.77274  Biso   1.000  O
  O76      1.0000 0.95215  0.07130  0.90381  Biso   1.000  O
