data_image0
_cell_length_a       18.0897
_cell_length_b       18.0897
_cell_length_c       18.0897
_cell_angle_alpha    60
_cell_angle_beta     60
_cell_angle_gamma    60

_symmetry_space_group_name_H-M    "P 1"
_symmetry_int_tables_number       1

loop_
  _symmetry_equiv_pos_as_xyz
  'x, y, z'

loop_
  _atom_site_label
  _atom_site_occupancy
  _atom_site_fract_x
  _atom_site_fract_y
  _atom_site_fract_z
  _atom_site_thermal_displace_type
  _atom_site_B_iso_or_equiv
  _atom_site_type_symbol
  Zn1      1.0000 0.38110  0.20630  0.20630  Biso   1.000  Zn
  Zn2      1.0000 0.20630  0.38110  0.20630  Biso   1.000  Zn
  Zn3      1.0000 0.20630  0.20630  0.38110  Biso   1.000  Zn
  Zn4      1.0000 0.20630  0.20630  0.20630  Biso   1.000  Zn
  Zn5      1.0000 0.79370  0.61890  0.79370  Biso   1.000  Zn
  Zn6      1.0000 0.61890  0.79370  0.79370  Biso   1.000  Zn
  Zn7      1.0000 0.79370  0.79370  0.61890  Biso   1.000  Zn
  Zn8      1.0000 0.79370  0.79370  0.79370  Biso   1.000  Zn
  H1       1.0000 0.35200  0.04240  0.56320  Biso   1.000  H
  H2       1.0000 0.04240  0.35200  0.04240  Biso   1.000  H
  H3       1.0000 0.56320  0.04240  0.35200  Biso   1.000  H
  H4       1.0000 0.04240  0.56320  0.04240  Biso   1.000  H
  H5       1.0000 0.35200  0.56320  0.04240  Biso   1.000  H
  H6       1.0000 0.04240  0.04240  0.56320  Biso   1.000  H
  H7       1.0000 0.56320  0.35200  0.04240  Biso   1.000  H
  H8       1.0000 0.04240  0.04240  0.35200  Biso   1.000  H
  H9       1.0000 0.35200  0.04240  0.04240  Biso   1.000  H
  H10      1.0000 0.04240  0.56320  0.35200  Biso   1.000  H
  H11      1.0000 0.56320  0.04240  0.04240  Biso   1.000  H
  H12      1.0000 0.04240  0.35200  0.56320  Biso   1.000  H
  H13      1.0000 0.95760  0.64800  0.43680  Biso   1.000  H
  H14      1.0000 0.64800  0.95760  0.95760  Biso   1.000  H
  H15      1.0000 0.95760  0.43680  0.64800  Biso   1.000  H
  H16      1.0000 0.43680  0.95760  0.95760  Biso   1.000  H
  H17      1.0000 0.43680  0.64800  0.95760  Biso   1.000  H
  H18      1.0000 0.95760  0.95760  0.43680  Biso   1.000  H
  H19      1.0000 0.64800  0.43680  0.95760  Biso   1.000  H
  H20      1.0000 0.95760  0.95760  0.64800  Biso   1.000  H
  H21      1.0000 0.95760  0.64800  0.95760  Biso   1.000  H
  H22      1.0000 0.43680  0.95760  0.64800  Biso   1.000  H
  H23      1.0000 0.95760  0.43680  0.95760  Biso   1.000  H
  H24      1.0000 0.64800  0.95760  0.43680  Biso   1.000  H
  C1       1.0000 0.41430  0.02590  0.53390  Biso   1.000  C
  C2       1.0000 0.02590  0.41430  0.02590  Biso   1.000  C
  C3       1.0000 0.53390  0.02590  0.41430  Biso   1.000  C
  C4       1.0000 0.02590  0.53390  0.02590  Biso   1.000  C
  C5       1.0000 0.41430  0.53390  0.02590  Biso   1.000  C
  C6       1.0000 0.02590  0.02590  0.53390  Biso   1.000  C
  C7       1.0000 0.53390  0.41430  0.02590  Biso   1.000  C
  C8       1.0000 0.02590  0.02590  0.41430  Biso   1.000  C
  C9       1.0000 0.41430  0.02590  0.02590  Biso   1.000  C
  C10      1.0000 0.02590  0.53390  0.41430  Biso   1.000  C
  C11      1.0000 0.53390  0.02590  0.02590  Biso   1.000  C
  C12      1.0000 0.02590  0.41430  0.53390  Biso   1.000  C
  C13      1.0000 0.97410  0.58570  0.46610  Biso   1.000  C
  C14      1.0000 0.58570  0.97410  0.97410  Biso   1.000  C
  C15      1.0000 0.97410  0.46610  0.58570  Biso   1.000  C
  C16      1.0000 0.46610  0.97410  0.97410  Biso   1.000  C
  C17      1.0000 0.46610  0.58570  0.97410  Biso   1.000  C
  C18      1.0000 0.97410  0.97410  0.46610  Biso   1.000  C
  C19      1.0000 0.58570  0.46610  0.97410  Biso   1.000  C
  C20      1.0000 0.97410  0.97410  0.58570  Biso   1.000  C
  C21      1.0000 0.97410  0.58570  0.97410  Biso   1.000  C
  C22      1.0000 0.46610  0.97410  0.58570  Biso   1.000  C
  C23      1.0000 0.97410  0.46610  0.97410  Biso   1.000  C
  C24      1.0000 0.58570  0.97410  0.46610  Biso   1.000  C
  C25      1.0000 0.38580  0.11420  0.38580  Biso   1.000  C
  C26      1.0000 0.44340  0.05660  0.44340  Biso   1.000  C
  C27      1.0000 0.11420  0.38580  0.11420  Biso   1.000  C
  C28      1.0000 0.05660  0.44340  0.05660  Biso   1.000  C
  C29      1.0000 0.38580  0.38580  0.11420  Biso   1.000  C
  C30      1.0000 0.44340  0.44340  0.05660  Biso   1.000  C
  C31      1.0000 0.11420  0.11420  0.38580  Biso   1.000  C
  C32      1.0000 0.05660  0.05660  0.44340  Biso   1.000  C
  C33      1.0000 0.38580  0.11420  0.11420  Biso   1.000  C
  C34      1.0000 0.44340  0.05660  0.05660  Biso   1.000  C
  C35      1.0000 0.11420  0.38580  0.38580  Biso   1.000  C
  C36      1.0000 0.05660  0.44340  0.44340  Biso   1.000  C
  C37      1.0000 0.88580  0.61420  0.61420  Biso   1.000  C
  C38      1.0000 0.94340  0.55660  0.55660  Biso   1.000  C
  C39      1.0000 0.61420  0.88580  0.88580  Biso   1.000  C
  C40      1.0000 0.55660  0.94340  0.94340  Biso   1.000  C
  C41      1.0000 0.61420  0.61420  0.88580  Biso   1.000  C
  C42      1.0000 0.55660  0.55660  0.94340  Biso   1.000  C
  C43      1.0000 0.88580  0.88580  0.61420  Biso   1.000  C
  C44      1.0000 0.94340  0.94340  0.55660  Biso   1.000  C
  C45      1.0000 0.88580  0.61420  0.88580  Biso   1.000  C
  C46      1.0000 0.94340  0.55660  0.94340  Biso   1.000  C
  C47      1.0000 0.61420  0.88580  0.61420  Biso   1.000  C
  C48      1.0000 0.55660  0.94340  0.55660  Biso   1.000  C
  O1       1.0000 0.25000  0.25000  0.25000  Biso   1.000  O
  O2       1.0000 0.75000  0.75000  0.75000  Biso   1.000  O
  O3       1.0000 0.42610  0.13570  0.30250  Biso   1.000  O
  O4       1.0000 0.13570  0.42610  0.13570  Biso   1.000  O
  O5       1.0000 0.30250  0.13570  0.42610  Biso   1.000  O
  O6       1.0000 0.13570  0.30250  0.13570  Biso   1.000  O
  O7       1.0000 0.42610  0.30250  0.13570  Biso   1.000  O
  O8       1.0000 0.13570  0.13570  0.30250  Biso   1.000  O
  O9       1.0000 0.30250  0.42610  0.13570  Biso   1.000  O
  O10      1.0000 0.13570  0.13570  0.42610  Biso   1.000  O
  O11      1.0000 0.42610  0.13570  0.13570  Biso   1.000  O
  O12      1.0000 0.13570  0.30250  0.42610  Biso   1.000  O
  O13      1.0000 0.30250  0.13570  0.13570  Biso   1.000  O
  O14      1.0000 0.13570  0.42610  0.30250  Biso   1.000  O
  O15      1.0000 0.86430  0.57390  0.69750  Biso   1.000  O
  O16      1.0000 0.57390  0.86430  0.86430  Biso   1.000  O
  O17      1.0000 0.86430  0.69750  0.57390  Biso   1.000  O
  O18      1.0000 0.69750  0.86430  0.86430  Biso   1.000  O
  O19      1.0000 0.69750  0.57390  0.86430  Biso   1.000  O
  O20      1.0000 0.86430  0.86430  0.69750  Biso   1.000  O
  O21      1.0000 0.57390  0.69750  0.86430  Biso   1.000  O
  O22      1.0000 0.86430  0.86430  0.57390  Biso   1.000  O
  O23      1.0000 0.86430  0.57390  0.86430  Biso   1.000  O
  O24      1.0000 0.69750  0.86430  0.57390  Biso   1.000  O
  O25      1.0000 0.86430  0.69750  0.86430  Biso   1.000  O
  O26      1.0000 0.57390  0.86430  0.69750  Biso   1.000  O
  Zn9      1.0000 0.00000  1.00000  0.00000  Biso   1.000  Zn
  Zn10     1.0000 0.40177  0.40175  0.59818  Biso   1.000  Zn
  Zn11     1.0000 0.22375  0.57977  0.59818  Biso   1.000  Zn
  Zn12     1.0000 0.82198  0.17802  0.00000  Biso   1.000  Zn
  Zn13     1.0000 0.82164  0.99965  0.17827  Biso   1.000  Zn
  Zn14     1.0000 0.82183  0.99985  0.99990  Biso   1.000  Zn
  Zn15     1.0000 0.40211  0.58012  0.41991  Biso   1.000  Zn
  Zn16     1.0000 0.40192  0.57992  0.59828  Biso   1.000  Zn
  H25      1.0000 0.65902  0.34290  0.14616  Biso   1.000  H
  H26      1.0000 0.65574  0.14220  0.36170  Biso   1.000  H
  H27      1.0000 0.65995  0.34180  0.83696  Biso   1.000  H
  H28      1.0000 0.65587  0.14477  0.83461  Biso   1.000  H
  H29      1.0000 0.16665  0.14274  0.83950  Biso   1.000  H
  H30      1.0000 0.05884  0.74275  0.45201  Biso   1.000  H
  H31      1.0000 0.25957  0.74601  0.23647  Biso   1.000  H
  H32      1.0000 0.05995  0.74181  0.76122  Biso   1.000  H
  H33      1.0000 0.25699  0.74588  0.76356  Biso   1.000  H
  H34      1.0000 0.25902  0.23512  0.75867  Biso   1.000  H
  H35      1.0000 0.56473  0.23687  0.45201  Biso   1.000  H
  H36      1.0000 0.56801  0.43757  0.23647  Biso   1.000  H
  H37      1.0000 0.56380  0.23797  0.76122  Biso   1.000  H
  H38      1.0000 0.56788  0.43500  0.76356  Biso   1.000  H
  H39      1.0000 0.05710  0.43703  0.75867  Biso   1.000  H
  H40      1.0000 0.16490  0.83703  0.14616  Biso   1.000  H
  H41      1.0000 0.96418  0.83376  0.36170  Biso   1.000  H
  H42      1.0000 0.16380  0.83796  0.83696  Biso   1.000  H
  H43      1.0000 0.96675  0.83389  0.83461  Biso   1.000  H
  H44      1.0000 0.96472  0.34465  0.83950  Biso   1.000  H
  H45      1.0000 0.65708  0.83509  0.14403  Biso   1.000  H
  H46      1.0000 0.65595  0.83396  0.36404  Biso   1.000  H
  H47      1.0000 0.56667  0.74468  0.45415  Biso   1.000  H
  H48      1.0000 0.56780  0.74581  0.23413  Biso   1.000  H
  C49      1.0000 0.72609  0.18670  0.18322  Biso   1.000  C
  C50      1.0000 0.66531  0.24584  0.24553  Biso   1.000  C
  C51      1.0000 0.63998  0.31674  0.20949  Biso   1.000  C
  C52      1.0000 0.63874  0.20542  0.33523  Biso   1.000  C
  C53      1.0000 0.72733  0.18345  0.90110  Biso   1.000  C
  C54      1.0000 0.66900  0.24301  0.84480  Biso   1.000  C
  C55      1.0000 0.64163  0.31513  0.81863  Biso   1.000  C
  C56      1.0000 0.63877  0.20789  0.81680  Biso   1.000  C
  C57      1.0000 0.14008  0.20596  0.81904  Biso   1.000  C
  C58      1.0000 0.21507  0.67566  0.41495  Biso   1.000  C
  C59      1.0000 0.15593  0.73644  0.35264  Biso   1.000  C
  C60      1.0000 0.08501  0.76178  0.38868  Biso   1.000  C
  C61      1.0000 0.19635  0.76301  0.26294  Biso   1.000  C
  C62      1.0000 0.21831  0.67443  0.69708  Biso   1.000  C
  C63      1.0000 0.15876  0.73275  0.75338  Biso   1.000  C
  C64      1.0000 0.08662  0.76014  0.77955  Biso   1.000  C
  C65      1.0000 0.19388  0.76299  0.78138  Biso   1.000  C
  C66      1.0000 0.19581  0.26169  0.77914  Biso   1.000  C
  C67      1.0000 0.49766  0.39307  0.41495  Biso   1.000  C
  C68      1.0000 0.55843  0.33393  0.35264  Biso   1.000  C
  C69      1.0000 0.58377  0.26303  0.38868  Biso   1.000  C
  C70      1.0000 0.58501  0.37435  0.26294  Biso   1.000  C
  C71      1.0000 0.49642  0.39632  0.69708  Biso   1.000  C
  C72      1.0000 0.55475  0.33676  0.75338  Biso   1.000  C
  C73      1.0000 0.58212  0.26464  0.77955  Biso   1.000  C
  C74      1.0000 0.58498  0.37188  0.78138  Biso   1.000  C
  C75      1.0000 0.08367  0.37382  0.77914  Biso   1.000  C
  C76      1.0000 0.00867  0.90411  0.18322  Biso   1.000  C
  C77      1.0000 0.06781  0.84333  0.24553  Biso   1.000  C
  C78      1.0000 0.13874  0.81799  0.20949  Biso   1.000  C
  C79      1.0000 0.02740  0.81676  0.33523  Biso   1.000  C
  C80      1.0000 0.00543  0.90534  0.90110  Biso   1.000  C
  C81      1.0000 0.06499  0.84702  0.84480  Biso   1.000  C
  C82      1.0000 0.13713  0.81964  0.81863  Biso   1.000  C
  C83      1.0000 0.02987  0.81679  0.81680  Biso   1.000  C
  C84      1.0000 0.02794  0.31808  0.81904  Biso   1.000  C
  C85      1.0000 0.72528  0.90329  0.19015  Biso   1.000  C
  C86      1.0000 0.66705  0.84506  0.24329  Biso   1.000  C
  C87      1.0000 0.63936  0.81738  0.20715  Biso   1.000  C
  C88      1.0000 0.63813  0.81615  0.33645  Biso   1.000  C
  C89      1.0000 0.00360  0.18162  0.90924  Biso   1.000  C
  C90      1.0000 0.06641  0.24443  0.84469  Biso   1.000  C
  C91      1.0000 0.49847  0.67648  0.40803  Biso   1.000  C
  C92      1.0000 0.55670  0.73471  0.35488  Biso   1.000  C
  C93      1.0000 0.58438  0.76240  0.39103  Biso   1.000  C
  C94      1.0000 0.58561  0.76362  0.26172  Biso   1.000  C
  C95      1.0000 0.22015  0.39815  0.68893  Biso   1.000  C
  C96      1.0000 0.15734  0.33534  0.75348  Biso   1.000  C
  O27      1.0000 0.74584  0.09976  0.22996  Biso   1.000  O
  O28      1.0000 0.74798  0.23139  0.09750  Biso   1.000  O
  O29      1.0000 0.74443  0.09876  0.92808  Biso   1.000  O
  O30      1.0000 0.74738  0.22834  0.92401  Biso   1.000  O
  O31      1.0000 0.05042  0.09774  0.92686  Biso   1.000  O
  O32      1.0000 0.30201  0.65592  0.36822  Biso   1.000  O
  O33      1.0000 0.17038  0.65377  0.50068  Biso   1.000  O
  O34      1.0000 0.30301  0.65733  0.67010  Biso   1.000  O
  O35      1.0000 0.17342  0.65437  0.67417  Biso   1.000  O
  O36      1.0000 0.30403  0.35132  0.67132  Biso   1.000  O
  O37      1.0000 0.47791  0.48001  0.36822  Biso   1.000  O
  O38      1.0000 0.47577  0.34838  0.50068  Biso   1.000  O
  O39      1.0000 0.47932  0.48101  0.67010  Biso   1.000  O
  O40      1.0000 0.47637  0.35143  0.67417  Biso   1.000  O
  O41      1.0000 0.17332  0.48203  0.67132  Biso   1.000  O
  O42      1.0000 0.92174  0.92385  0.22996  Biso   1.000  O
  O43      1.0000 0.05337  0.92600  0.09750  Biso   1.000  O
  O44      1.0000 0.92074  0.92244  0.92808  Biso   1.000  O
  O45      1.0000 0.05032  0.92540  0.92401  Biso   1.000  O
  O46      1.0000 0.91972  0.22845  0.92686  Biso   1.000  O
  O47      1.0000 0.86657  0.04459  0.04486  Biso   1.000  O
  O48      1.0000 0.74686  0.92487  0.22924  Biso   1.000  O
  O49      1.0000 0.74452  0.92254  0.10564  Biso   1.000  O
  O50      1.0000 0.35717  0.53518  0.55332  Biso   1.000  O
  O51      1.0000 0.47689  0.65490  0.36893  Biso   1.000  O
  O52      1.0000 0.47923  0.65723  0.49253  Biso   1.000  O
