data_image0
_cell_length_a       8.995
_cell_length_b       8.995
_cell_length_c       8.995
_cell_angle_alpha    60
_cell_angle_beta     60
_cell_angle_gamma    60

_symmetry_space_group_name_H-M    "P 1"
_symmetry_int_tables_number       1

loop_
  _symmetry_equiv_pos_as_xyz
  'x, y, z'

loop_
  _atom_site_label
  _atom_site_occupancy
  _atom_site_fract_x
  _atom_site_fract_y
  _atom_site_fract_z
  _atom_site_thermal_displace_type
  _atom_site_B_iso_or_equiv
  _atom_site_type_symbol
  Cd1      1.0000 0.12500  0.62500  0.62500  Biso   1.000  Cd
  Cd2      1.0000 0.87500  0.37500  0.37500  Biso   1.000  Cd
  C1       1.0000 0.02654  0.92038  0.52654  Biso   1.000  C
  C2       1.0000 0.42038  0.52654  0.52654  Biso   1.000  C
  C3       1.0000 0.02654  0.52654  0.52654  Biso   1.000  C
  C4       1.0000 0.02654  0.52654  0.92038  Biso   1.000  C
  C5       1.0000 0.57962  0.47346  0.47346  Biso   1.000  C
  C6       1.0000 0.97346  0.07962  0.47346  Biso   1.000  C
  C7       1.0000 0.97346  0.47346  0.47346  Biso   1.000  C
  C8       1.0000 0.97346  0.47346  0.07962  Biso   1.000  C
  Cd3      1.0000 0.62291  0.63303  0.56695  Biso   1.000  Cd
  Cd4      1.0000 0.87291  0.88303  0.81695  Biso   1.000  Cd
  C9       1.0000 0.72137  0.33765  0.66541  Biso   1.000  C
  C10      1.0000 0.72137  0.73149  0.66541  Biso   1.000  C
  C11      1.0000 0.32753  0.73149  0.66541  Biso   1.000  C
  C12      1.0000 0.72137  0.73149  0.27157  Biso   1.000  C
  C13      1.0000 0.77445  0.78457  0.71849  Biso   1.000  C
  C14      1.0000 0.77445  0.17841  0.71849  Biso   1.000  C
  C15      1.0000 0.16829  0.78457  0.71849  Biso   1.000  C
  C16      1.0000 0.77445  0.78457  0.11233  Biso   1.000  C
