data_image0
_cell_length_a       30.3522
_cell_length_b       30.3522
_cell_length_c       30.3522
_cell_angle_alpha    60
_cell_angle_beta     60
_cell_angle_gamma    60

_symmetry_space_group_name_H-M    "P 1"
_symmetry_int_tables_number       1

loop_
  _symmetry_equiv_pos_as_xyz
  'x, y, z'

loop_
  _atom_site_label
  _atom_site_occupancy
  _atom_site_fract_x
  _atom_site_fract_y
  _atom_site_fract_z
  _atom_site_thermal_displace_type
  _atom_site_B_iso_or_equiv
  _atom_site_type_symbol
  Zn1      1.0000 0.22383  0.32851  0.22383  Biso   1.000  Zn
  Zn2      1.0000 0.32851  0.22383  0.22383  Biso   1.000  Zn
  Zn3      1.0000 0.22383  0.22383  0.22383  Biso   1.000  Zn
  Zn4      1.0000 0.22383  0.22383  0.32851  Biso   1.000  Zn
  Zn5      1.0000 0.67149  0.77617  0.77617  Biso   1.000  Zn
  Zn6      1.0000 0.77617  0.67149  0.77617  Biso   1.000  Zn
  Zn7      1.0000 0.77617  0.77617  0.77617  Biso   1.000  Zn
  Zn8      1.0000 0.77617  0.77617  0.67149  Biso   1.000  Zn
  H1       1.0000 0.95863  0.39745  0.18012  Biso   1.000  H
  H2       1.0000 0.46439  0.95766  0.39746  Biso   1.000  H
  H3       1.0000 0.96682  0.17704  0.45791  Biso   1.000  H
  H4       1.0000 0.40802  0.43821  0.17108  Biso   1.000  H
  H5       1.0000 0.18131  0.39758  0.46564  Biso   1.000  H
  H6       1.0000 0.40159  0.97565  0.17372  Biso   1.000  H
  H7       1.0000 0.53942  0.79897  0.09700  Biso   1.000  H
  H8       1.0000 0.58548  0.52802  0.08183  Biso   1.000  H
  H9       1.0000 0.81057  0.06613  0.52712  Biso   1.000  H
  H10      1.0000 0.57677  0.80163  0.53168  Biso   1.000  H
  H11      1.0000 0.83000  0.56929  0.01445  Biso   1.000  H
  H12      1.0000 0.80290  0.52975  0.08654  Biso   1.000  H
  H13      1.0000 0.80967  0.59491  0.06854  Biso   1.000  H
  H14      1.0000 0.52749  0.81149  0.59733  Biso   1.000  H
  H15      1.0000 0.58970  0.82945  0.56494  Biso   1.000  H
  H16      1.0000 0.80225  0.08829  0.57881  Biso   1.000  H
  H17      1.0000 0.82975  0.01512  0.58803  Biso   1.000  H
  H18      1.0000 0.52681  0.59139  0.07429  Biso   1.000  H
  H19      1.0000 0.58166  0.57455  0.01340  Biso   1.000  H
  H20      1.0000 0.03530  0.54039  0.60215  Biso   1.000  H
  H21      1.0000 0.03440  0.60200  0.54110  Biso   1.000  H
  H22      1.0000 0.09983  0.55156  0.55070  Biso   1.000  H
  H23      1.0000 0.55278  0.82682  0.02291  Biso   1.000  H
  H24      1.0000 0.60176  0.81678  0.04962  Biso   1.000  H
  H25      1.0000 0.17451  0.45146  0.40047  Biso   1.000  H
  H26      1.0000 0.20162  0.45701  0.43994  Biso   1.000  H
  H27      1.0000 0.46715  0.95255  0.18241  Biso   1.000  H
  H28      1.0000 0.43731  0.90227  0.20130  Biso   1.000  H
  H29      1.0000 0.90021  0.20208  0.45045  Biso   1.000  H
  H30      1.0000 0.96344  0.17831  0.39769  Biso   1.000  H
  H31      1.0000 0.42626  0.46665  0.19919  Biso   1.000  H
  H32      1.0000 0.47176  0.40118  0.18717  Biso   1.000  H
  H33      1.0000 0.90077  0.45455  0.20187  Biso   1.000  H
  H34      1.0000 0.97108  0.45405  0.17544  Biso   1.000  H
  H35      1.0000 0.39973  0.97186  0.45326  Biso   1.000  H
  H36      1.0000 0.44193  0.90095  0.45532  Biso   1.000  H
  H37      1.0000 0.12795  0.30104  0.12795  Biso   1.000  H
  H38      1.0000 0.06913  0.36235  0.06913  Biso   1.000  H
  H39      1.0000 0.30104  0.12795  0.44306  Biso   1.000  H
  H40      1.0000 0.35791  0.07166  0.49877  Biso   1.000  H
  H41      1.0000 0.12795  0.44306  0.12795  Biso   1.000  H
  H42      1.0000 0.07166  0.49877  0.07166  Biso   1.000  H
  H43      1.0000 0.44306  0.12795  0.30104  Biso   1.000  H
  H44      1.0000 0.49877  0.07166  0.35791  Biso   1.000  H
  H45      1.0000 0.12795  0.12795  0.44306  Biso   1.000  H
  H46      1.0000 0.06913  0.06913  0.49939  Biso   1.000  H
  H47      1.0000 0.30104  0.44306  0.12795  Biso   1.000  H
  H48      1.0000 0.35791  0.49877  0.07166  Biso   1.000  H
  H49      1.0000 0.12795  0.12795  0.30104  Biso   1.000  H
  H50      1.0000 0.06913  0.06913  0.36235  Biso   1.000  H
  H51      1.0000 0.44306  0.30104  0.12795  Biso   1.000  H
  H52      1.0000 0.49877  0.35791  0.07166  Biso   1.000  H
  H53      1.0000 0.12795  0.44306  0.30104  Biso   1.000  H
  H54      1.0000 0.07166  0.49877  0.35791  Biso   1.000  H
  H55      1.0000 0.30104  0.12795  0.12795  Biso   1.000  H
  H56      1.0000 0.35791  0.07166  0.07166  Biso   1.000  H
  H57      1.0000 0.12795  0.30104  0.44306  Biso   1.000  H
  H58      1.0000 0.06913  0.36235  0.49939  Biso   1.000  H
  H59      1.0000 0.44306  0.12795  0.12795  Biso   1.000  H
  H60      1.0000 0.49877  0.07166  0.07166  Biso   1.000  H
  H61      1.0000 0.69896  0.87205  0.87205  Biso   1.000  H
  H62      1.0000 0.64209  0.92834  0.92834  Biso   1.000  H
  H63      1.0000 0.87205  0.69896  0.55694  Biso   1.000  H
  H64      1.0000 0.92834  0.64209  0.50123  Biso   1.000  H
  H65      1.0000 0.55694  0.87205  0.87205  Biso   1.000  H
  H66      1.0000 0.50061  0.93087  0.93087  Biso   1.000  H
  H67      1.0000 0.87205  0.55694  0.69896  Biso   1.000  H
  H68      1.0000 0.92834  0.50123  0.64209  Biso   1.000  H
  H69      1.0000 0.87205  0.87205  0.55694  Biso   1.000  H
  H70      1.0000 0.93087  0.93087  0.50061  Biso   1.000  H
  H71      1.0000 0.55694  0.69896  0.87205  Biso   1.000  H
  H72      1.0000 0.50123  0.64209  0.92834  Biso   1.000  H
  H73      1.0000 0.87205  0.87205  0.69896  Biso   1.000  H
  H74      1.0000 0.92834  0.92834  0.64209  Biso   1.000  H
  H75      1.0000 0.69896  0.55694  0.87205  Biso   1.000  H
  H76      1.0000 0.64209  0.50123  0.92834  Biso   1.000  H
  H77      1.0000 0.55694  0.87205  0.69896  Biso   1.000  H
  H78      1.0000 0.50123  0.92834  0.64209  Biso   1.000  H
  H79      1.0000 0.87205  0.69896  0.87205  Biso   1.000  H
  H80      1.0000 0.92834  0.64209  0.92834  Biso   1.000  H
  H81      1.0000 0.69896  0.87205  0.55694  Biso   1.000  H
  H82      1.0000 0.64209  0.92834  0.50123  Biso   1.000  H
  H83      1.0000 0.87205  0.55694  0.87205  Biso   1.000  H
  H84      1.0000 0.93087  0.50061  0.93087  Biso   1.000  H
  H85      1.0000 0.85007  0.49666  0.15660  Biso   1.000  H
  H86      1.0000 0.49666  0.85007  0.49666  Biso   1.000  H
  H87      1.0000 0.85007  0.15660  0.49666  Biso   1.000  H
  H88      1.0000 0.49666  0.49666  0.15660  Biso   1.000  H
  H89      1.0000 0.15660  0.49666  0.49666  Biso   1.000  H
  H90      1.0000 0.49666  0.85007  0.15660  Biso   1.000  H
  C1       1.0000 0.16630  0.33370  0.16630  Biso   1.000  C
  C2       1.0000 0.13360  0.36640  0.13360  Biso   1.000  C
  C3       1.0000 0.06490  0.43510  0.06490  Biso   1.000  C
  C4       1.0000 0.03280  0.46720  0.03280  Biso   1.000  C
  C5       1.0000 0.33370  0.16630  0.33370  Biso   1.000  C
  C6       1.0000 0.36640  0.13360  0.36640  Biso   1.000  C
  C7       1.0000 0.43510  0.06490  0.43510  Biso   1.000  C
  C8       1.0000 0.46720  0.03280  0.46720  Biso   1.000  C
  C9       1.0000 0.16630  0.16630  0.33370  Biso   1.000  C
  C10      1.0000 0.13360  0.13360  0.36640  Biso   1.000  C
  C11      1.0000 0.06490  0.06490  0.43510  Biso   1.000  C
  C12      1.0000 0.03280  0.03280  0.46720  Biso   1.000  C
  C13      1.0000 0.33370  0.33370  0.16630  Biso   1.000  C
  C14      1.0000 0.36640  0.36640  0.13360  Biso   1.000  C
  C15      1.0000 0.43510  0.43510  0.06490  Biso   1.000  C
  C16      1.0000 0.46720  0.46720  0.03280  Biso   1.000  C
  C17      1.0000 0.16630  0.33370  0.33370  Biso   1.000  C
  C18      1.0000 0.13360  0.36640  0.36640  Biso   1.000  C
  C19      1.0000 0.06490  0.43510  0.43510  Biso   1.000  C
  C20      1.0000 0.03280  0.46720  0.46720  Biso   1.000  C
  C21      1.0000 0.33370  0.16630  0.16630  Biso   1.000  C
  C22      1.0000 0.36640  0.13360  0.13360  Biso   1.000  C
  C23      1.0000 0.43510  0.06490  0.06490  Biso   1.000  C
  C24      1.0000 0.46720  0.03280  0.03280  Biso   1.000  C
  C25      1.0000 0.66630  0.83370  0.83370  Biso   1.000  C
  C26      1.0000 0.63360  0.86640  0.86640  Biso   1.000  C
  C27      1.0000 0.56490  0.93510  0.93510  Biso   1.000  C
  C28      1.0000 0.53280  0.96720  0.96720  Biso   1.000  C
  C29      1.0000 0.83370  0.66630  0.66630  Biso   1.000  C
  C30      1.0000 0.86640  0.63360  0.63360  Biso   1.000  C
  C31      1.0000 0.93510  0.56490  0.56490  Biso   1.000  C
  C32      1.0000 0.96720  0.53280  0.53280  Biso   1.000  C
  C33      1.0000 0.83370  0.83370  0.66630  Biso   1.000  C
  C34      1.0000 0.86640  0.86640  0.63360  Biso   1.000  C
  C35      1.0000 0.93510  0.93510  0.56490  Biso   1.000  C
  C36      1.0000 0.96720  0.96720  0.53280  Biso   1.000  C
  C37      1.0000 0.66630  0.66630  0.83370  Biso   1.000  C
  C38      1.0000 0.63360  0.63360  0.86640  Biso   1.000  C
  C39      1.0000 0.56490  0.56490  0.93510  Biso   1.000  C
  C40      1.0000 0.53280  0.53280  0.96720  Biso   1.000  C
  C41      1.0000 0.66630  0.83370  0.66630  Biso   1.000  C
  C42      1.0000 0.63360  0.86640  0.63360  Biso   1.000  C
  C43      1.0000 0.56490  0.93510  0.56490  Biso   1.000  C
  C44      1.0000 0.53280  0.96720  0.53280  Biso   1.000  C
  C45      1.0000 0.83370  0.66630  0.83370  Biso   1.000  C
  C46      1.0000 0.86640  0.63360  0.86640  Biso   1.000  C
  C47      1.0000 0.93510  0.56490  0.93510  Biso   1.000  C
  C48      1.0000 0.96720  0.53280  0.96720  Biso   1.000  C
  C49      1.0000 0.11610  0.34650  0.11610  Biso   1.000  C
  C50      1.0000 0.08290  0.38070  0.08290  Biso   1.000  C
  C51      1.0000 0.34650  0.11610  0.42130  Biso   1.000  C
  C52      1.0000 0.38070  0.08290  0.45350  Biso   1.000  C
  C53      1.0000 0.11610  0.42130  0.11610  Biso   1.000  C
  C54      1.0000 0.08290  0.45350  0.08290  Biso   1.000  C
  C55      1.0000 0.42130  0.11610  0.34650  Biso   1.000  C
  C56      1.0000 0.45350  0.08290  0.38070  Biso   1.000  C
  C57      1.0000 0.11610  0.11610  0.42130  Biso   1.000  C
  C58      1.0000 0.08290  0.08290  0.45350  Biso   1.000  C
  C59      1.0000 0.34650  0.42130  0.11610  Biso   1.000  C
  C60      1.0000 0.38070  0.45350  0.08290  Biso   1.000  C
  C61      1.0000 0.11610  0.11610  0.34650  Biso   1.000  C
  C62      1.0000 0.08290  0.08290  0.38070  Biso   1.000  C
  C63      1.0000 0.42130  0.34650  0.11610  Biso   1.000  C
  C64      1.0000 0.45350  0.38070  0.08290  Biso   1.000  C
  C65      1.0000 0.11610  0.42130  0.34650  Biso   1.000  C
  C66      1.0000 0.08290  0.45350  0.38070  Biso   1.000  C
  C67      1.0000 0.34650  0.11610  0.11610  Biso   1.000  C
  C68      1.0000 0.38070  0.08290  0.08290  Biso   1.000  C
  C69      1.0000 0.11610  0.34650  0.42130  Biso   1.000  C
  C70      1.0000 0.08290  0.38070  0.45350  Biso   1.000  C
  C71      1.0000 0.42130  0.11610  0.11610  Biso   1.000  C
  C72      1.0000 0.45350  0.08290  0.08290  Biso   1.000  C
  C73      1.0000 0.65350  0.88390  0.88390  Biso   1.000  C
  C74      1.0000 0.61930  0.91710  0.91710  Biso   1.000  C
  C75      1.0000 0.88390  0.65350  0.57870  Biso   1.000  C
  C76      1.0000 0.91710  0.61930  0.54650  Biso   1.000  C
  C77      1.0000 0.57870  0.88390  0.88390  Biso   1.000  C
  C78      1.0000 0.54650  0.91710  0.91710  Biso   1.000  C
  C79      1.0000 0.88390  0.57870  0.65350  Biso   1.000  C
  C80      1.0000 0.91710  0.54650  0.61930  Biso   1.000  C
  C81      1.0000 0.88390  0.88390  0.57870  Biso   1.000  C
  C82      1.0000 0.91710  0.91710  0.54650  Biso   1.000  C
  C83      1.0000 0.57870  0.65350  0.88390  Biso   1.000  C
  C84      1.0000 0.54650  0.61930  0.91710  Biso   1.000  C
  C85      1.0000 0.88390  0.88390  0.65350  Biso   1.000  C
  C86      1.0000 0.91710  0.91710  0.61930  Biso   1.000  C
  C87      1.0000 0.65350  0.57870  0.88390  Biso   1.000  C
  C88      1.0000 0.61930  0.54650  0.91710  Biso   1.000  C
  C89      1.0000 0.57870  0.88390  0.65350  Biso   1.000  C
  C90      1.0000 0.54650  0.91710  0.61930  Biso   1.000  C
  C91      1.0000 0.88390  0.65350  0.88390  Biso   1.000  C
  C92      1.0000 0.91710  0.61930  0.91710  Biso   1.000  C
  C93      1.0000 0.65350  0.88390  0.57870  Biso   1.000  C
  C94      1.0000 0.61930  0.91710  0.54650  Biso   1.000  C
  C95      1.0000 0.88390  0.57870  0.88390  Biso   1.000  C
  C96      1.0000 0.91710  0.54650  0.91710  Biso   1.000  C
  C97      1.0000 0.05540  0.48340  0.97780  Biso   1.000  C
  C98      1.0000 0.48340  0.05540  0.48340  Biso   1.000  C
  C99      1.0000 0.97780  0.48340  0.05540  Biso   1.000  C
  C100     1.0000 0.94280  0.44280  0.17160  Biso   1.000  C
  C101     1.0000 0.48340  0.97780  0.48340  Biso   1.000  C
  C102     1.0000 0.44280  0.94280  0.44280  Biso   1.000  C
  C103     1.0000 0.05540  0.97780  0.48340  Biso   1.000  C
  C104     1.0000 0.48340  0.48340  0.97780  Biso   1.000  C
  C105     1.0000 0.97780  0.05540  0.48340  Biso   1.000  C
  C106     1.0000 0.94280  0.17160  0.44280  Biso   1.000  C
  C107     1.0000 0.48340  0.48340  0.05540  Biso   1.000  C
  C108     1.0000 0.44280  0.44280  0.17160  Biso   1.000  C
  C109     1.0000 0.05540  0.48340  0.48340  Biso   1.000  C
  C110     1.0000 0.17160  0.44280  0.44280  Biso   1.000  C
  C111     1.0000 0.48340  0.97780  0.05540  Biso   1.000  C
  C112     1.0000 0.44280  0.94280  0.17160  Biso   1.000  C
  C113     1.0000 0.97780  0.48340  0.48340  Biso   1.000  C
  C114     1.0000 0.48340  0.05540  0.97780  Biso   1.000  C
  C115     1.0000 0.51660  0.94460  0.02220  Biso   1.000  C
  C116     1.0000 0.55720  0.82840  0.05720  Biso   1.000  C
  C117     1.0000 0.94460  0.51660  0.51660  Biso   1.000  C
  C118     1.0000 0.51660  0.02220  0.94460  Biso   1.000  C
  C119     1.0000 0.02220  0.51660  0.51660  Biso   1.000  C
  C120     1.0000 0.05720  0.55720  0.55720  Biso   1.000  C
  C121     1.0000 0.02220  0.94460  0.51660  Biso   1.000  C
  C122     1.0000 0.51660  0.51660  0.02220  Biso   1.000  C
  C123     1.0000 0.55720  0.55720  0.05720  Biso   1.000  C
  C124     1.0000 0.94460  0.02220  0.51660  Biso   1.000  C
  C125     1.0000 0.82840  0.05720  0.55720  Biso   1.000  C
  C126     1.0000 0.51660  0.51660  0.94460  Biso   1.000  C
  C127     1.0000 0.51660  0.94460  0.51660  Biso   1.000  C
  C128     1.0000 0.55720  0.82840  0.55720  Biso   1.000  C
  C129     1.0000 0.02220  0.51660  0.94460  Biso   1.000  C
  C130     1.0000 0.51660  0.02220  0.51660  Biso   1.000  C
  C131     1.0000 0.94460  0.51660  0.02220  Biso   1.000  C
  C132     1.0000 0.82840  0.55720  0.05720  Biso   1.000  C
  C133     1.0000 0.88400  0.50000  0.11600  Biso   1.000  C
  C134     1.0000 0.50000  0.88400  0.50000  Biso   1.000  C
  C135     1.0000 0.88400  0.11600  0.50000  Biso   1.000  C
  C136     1.0000 0.50000  0.50000  0.11600  Biso   1.000  C
  C137     1.0000 0.11600  0.50000  0.50000  Biso   1.000  C
  C138     1.0000 0.50000  0.88400  0.11600  Biso   1.000  C
  N1       1.0000 0.94000  0.47300  0.11400  Biso   1.000  N
  N2       1.0000 0.47300  0.94000  0.47300  Biso   1.000  N
  N3       1.0000 0.94000  0.11400  0.47300  Biso   1.000  N
  N4       1.0000 0.47300  0.47300  0.11400  Biso   1.000  N
  N5       1.0000 0.11400  0.47300  0.47300  Biso   1.000  N
  N6       1.0000 0.47300  0.94000  0.11400  Biso   1.000  N
  N7       1.0000 0.52700  0.88600  0.06000  Biso   1.000  N
  N8       1.0000 0.06000  0.52700  0.52700  Biso   1.000  N
  N9       1.0000 0.52700  0.52700  0.06000  Biso   1.000  N
  N10      1.0000 0.88600  0.06000  0.52700  Biso   1.000  N
  N11      1.0000 0.52700  0.88600  0.52700  Biso   1.000  N
  N12      1.0000 0.88600  0.52700  0.06000  Biso   1.000  N
  O1       1.0000 0.18080  0.35740  0.18080  Biso   1.000  O
  O2       1.0000 0.35740  0.18080  0.28100  Biso   1.000  O
  O3       1.0000 0.18080  0.28100  0.18080  Biso   1.000  O
  O4       1.0000 0.28100  0.18080  0.35740  Biso   1.000  O
  O5       1.0000 0.18080  0.18080  0.28100  Biso   1.000  O
  O6       1.0000 0.35740  0.28100  0.18080  Biso   1.000  O
  O7       1.0000 0.18080  0.18080  0.35740  Biso   1.000  O
  O8       1.0000 0.28100  0.35740  0.18080  Biso   1.000  O
  O9       1.0000 0.18080  0.28100  0.35740  Biso   1.000  O
  O10      1.0000 0.35740  0.18080  0.18080  Biso   1.000  O
  O11      1.0000 0.18080  0.35740  0.28100  Biso   1.000  O
  O12      1.0000 0.28100  0.18080  0.18080  Biso   1.000  O
  O13      1.0000 0.64260  0.81920  0.81920  Biso   1.000  O
  O14      1.0000 0.81920  0.64260  0.71900  Biso   1.000  O
  O15      1.0000 0.71900  0.81920  0.81920  Biso   1.000  O
  O16      1.0000 0.81920  0.71900  0.64260  Biso   1.000  O
  O17      1.0000 0.81920  0.81920  0.71900  Biso   1.000  O
  O18      1.0000 0.71900  0.64260  0.81920  Biso   1.000  O
  O19      1.0000 0.81920  0.81920  0.64260  Biso   1.000  O
  O20      1.0000 0.64260  0.71900  0.81920  Biso   1.000  O
  O21      1.0000 0.71900  0.81920  0.64260  Biso   1.000  O
  O22      1.0000 0.81920  0.64260  0.81920  Biso   1.000  O
  O23      1.0000 0.64260  0.81920  0.71900  Biso   1.000  O
  O24      1.0000 0.81920  0.71900  0.81920  Biso   1.000  O
  O25      1.0000 0.25000  0.25000  0.25000  Biso   1.000  O
  O26      1.0000 0.75000  0.75000  0.75000  Biso   1.000  O
  H91      1.0000 0.10116  0.47035  0.95814  Biso   1.000  H
  H92      1.0000 0.47035  0.10116  0.47035  Biso   1.000  H
  H93      1.0000 0.10116  0.95814  0.47035  Biso   1.000  H
  H94      1.0000 0.47035  0.47035  0.95814  Biso   1.000  H
  H95      1.0000 0.95814  0.47035  0.47035  Biso   1.000  H
  H96      1.0000 0.47035  0.10116  0.95814  Biso   1.000  H
  H97      1.0000 0.89879  0.52988  0.52988  Biso   1.000  H
  H98      1.0000 0.52965  0.04186  0.89884  Biso   1.000  H
  H99      1.0000 0.04145  0.89879  0.52988  Biso   1.000  H
  H100     1.0000 0.52988  0.52988  0.89879  Biso   1.000  H
  H101     1.0000 0.04145  0.52988  0.89879  Biso   1.000  H
  H102     1.0000 0.52965  0.04186  0.52965  Biso   1.000  H
  Zn9      1.0000 0.14224  0.85752  0.83480  Biso   1.000  Zn
  Zn10     1.0000 0.14224  0.96220  0.83480  Biso   1.000  Zn
  Zn11     1.0000 0.03756  0.96220  0.83480  Biso   1.000  Zn
  Zn12     1.0000 0.14224  0.96220  0.73012  Biso   1.000  Zn
  Zn13     1.0000 0.58990  0.40986  0.28246  Biso   1.000  Zn
  Zn14     1.0000 0.58990  0.51454  0.28246  Biso   1.000  Zn
  Zn15     1.0000 0.69458  0.40986  0.28246  Biso   1.000  Zn
  Zn16     1.0000 0.58990  0.40986  0.38714  Biso   1.000  Zn
  H103     1.0000 0.90227  0.78858  0.87851  Biso   1.000  H
  H104     1.0000 0.18558  0.22837  0.66117  Biso   1.000  H
  H105     1.0000 0.96784  0.00899  0.60072  Biso   1.000  H
  H106     1.0000 0.38338  0.74782  0.88755  Biso   1.000  H
  H107     1.0000 0.41060  0.78845  0.59299  Biso   1.000  H
  H108     1.0000 0.91703  0.21038  0.88491  Biso   1.000  H
  H109     1.0000 0.80146  0.38706  0.96163  Biso   1.000  H
  H110     1.0000 0.56140  0.65801  0.97680  Biso   1.000  H
  H111     1.0000 0.76989  0.11990  0.53151  Biso   1.000  H
  H112     1.0000 0.27615  0.38440  0.52695  Biso   1.000  H
  H113     1.0000 0.77981  0.61674  0.04418  Biso   1.000  H
  H114     1.0000 0.78526  0.65628  0.97209  Biso   1.000  H
  H115     1.0000 0.83919  0.59112  0.99009  Biso   1.000  H
  H116     1.0000 0.30238  0.37454  0.46130  Biso   1.000  H
  H117     1.0000 0.35016  0.35658  0.49369  Biso   1.000  H
  H118     1.0000 0.83542  0.09774  0.47982  Biso   1.000  H
  H119     1.0000 0.79897  0.17091  0.47060  Biso   1.000  H
  H120     1.0000 0.55856  0.59464  0.98434  Biso   1.000  H
  H121     1.0000 0.53568  0.61148  0.04523  Biso   1.000  H
  H122     1.0000 0.54391  0.64564  0.45648  Biso   1.000  H
  H123     1.0000 0.54357  0.58403  0.51753  Biso   1.000  H
  H124     1.0000 0.56816  0.63447  0.50793  Biso   1.000  H
  H125     1.0000 0.76858  0.35921  0.03572  Biso   1.000  H
  H126     1.0000 0.83423  0.36925  0.00901  Biso   1.000  H
  H127     1.0000 0.39251  0.73457  0.65816  Biso   1.000  H
  H128     1.0000 0.46464  0.72902  0.61869  Biso   1.000  H
  H129     1.0000 0.96818  0.23348  0.87622  Biso   1.000  H
  H130     1.0000 0.90695  0.28376  0.85733  Biso   1.000  H
  H131     1.0000 0.91881  0.98395  0.60818  Biso   1.000  H
  H132     1.0000 0.90551  0.00772  0.66094  Biso   1.000  H
  H133     1.0000 0.45817  0.71938  0.85944  Biso   1.000  H
  H134     1.0000 0.42618  0.78485  0.87146  Biso   1.000  H
  H135     1.0000 0.92326  0.73148  0.85676  Biso   1.000  H
  H136     1.0000 0.96664  0.73198  0.88319  Biso   1.000  H
  H137     1.0000 0.19092  0.21417  0.60537  Biso   1.000  H
  H138     1.0000 0.16427  0.28508  0.60331  Biso   1.000  H
  H139     1.0000 0.92301  0.88499  0.93068  Biso   1.000  H
  H140     1.0000 0.86668  0.82368  0.98950  Biso   1.000  H
  H141     1.0000 0.23812  0.05808  0.61557  Biso   1.000  H
  H142     1.0000 0.29441  0.11437  0.55986  Biso   1.000  H
  H143     1.0000 0.06503  0.74297  0.93068  Biso   1.000  H
  H144     1.0000 0.00816  0.68726  0.98697  Biso   1.000  H
  H145     1.0000 0.23812  0.05808  0.75759  Biso   1.000  H
  H146     1.0000 0.29441  0.11437  0.70072  Biso   1.000  H
  H147     1.0000 0.06503  0.05808  0.61557  Biso   1.000  H
  H148     1.0000 0.00372  0.11690  0.55924  Biso   1.000  H
  H149     1.0000 0.23812  0.74297  0.93068  Biso   1.000  H
  H150     1.0000 0.29441  0.68726  0.98697  Biso   1.000  H
  H151     1.0000 0.92301  0.05808  0.75759  Biso   1.000  H
  H152     1.0000 0.86668  0.11690  0.69628  Biso   1.000  H
  H153     1.0000 0.23812  0.88499  0.93068  Biso   1.000  H
  H154     1.0000 0.29441  0.82812  0.98697  Biso   1.000  H
  H155     1.0000 0.23812  0.74297  0.75759  Biso   1.000  H
  H156     1.0000 0.29441  0.68726  0.70072  Biso   1.000  H
  H157     1.0000 0.92301  0.05808  0.93068  Biso   1.000  H
  H158     1.0000 0.86730  0.11437  0.98697  Biso   1.000  H
  H159     1.0000 0.23812  0.88499  0.61557  Biso   1.000  H
  H160     1.0000 0.29694  0.82368  0.55924  Biso   1.000  H
  H161     1.0000 0.06503  0.05808  0.93068  Biso   1.000  H
  H162     1.0000 0.00816  0.11437  0.98697  Biso   1.000  H
  H163     1.0000 0.80913  0.31398  0.18658  Biso   1.000  H
  H164     1.0000 0.86484  0.25769  0.13029  Biso   1.000  H
  H165     1.0000 0.49402  0.48707  0.50169  Biso   1.000  H
  H166     1.0000 0.43773  0.54394  0.55740  Biso   1.000  H
  H167     1.0000 0.66711  0.31398  0.18658  Biso   1.000  H
  H168     1.0000 0.72842  0.25516  0.12776  Biso   1.000  H
  H169     1.0000 0.49402  0.62909  0.35967  Biso   1.000  H
  H170     1.0000 0.43773  0.68480  0.41654  Biso   1.000  H
  H171     1.0000 0.66711  0.31398  0.50169  Biso   1.000  H
  H172     1.0000 0.72842  0.25516  0.55802  Biso   1.000  H
  H173     1.0000 0.49402  0.48707  0.18658  Biso   1.000  H
  H174     1.0000 0.43773  0.54394  0.13029  Biso   1.000  H
  H175     1.0000 0.80913  0.31398  0.35967  Biso   1.000  H
  H176     1.0000 0.86484  0.25769  0.41654  Biso   1.000  H
  H177     1.0000 0.49402  0.62909  0.18658  Biso   1.000  H
  H178     1.0000 0.43773  0.68480  0.13029  Biso   1.000  H
  H179     1.0000 0.49402  0.31398  0.35967  Biso   1.000  H
  H180     1.0000 0.43773  0.25769  0.41654  Biso   1.000  H
  H181     1.0000 0.80913  0.48707  0.18658  Biso   1.000  H
  H182     1.0000 0.86484  0.54394  0.13029  Biso   1.000  H
  H183     1.0000 0.49402  0.31398  0.50169  Biso   1.000  H
  H184     1.0000 0.43773  0.25769  0.55740  Biso   1.000  H
  H185     1.0000 0.66711  0.62909  0.18658  Biso   1.000  H
  H186     1.0000 0.72842  0.68542  0.12776  Biso   1.000  H
  H187     1.0000 0.86940  0.68937  0.90203  Biso   1.000  H
  H188     1.0000 0.20946  0.33596  0.56197  Biso   1.000  H
  H189     1.0000 0.86940  0.02943  0.56197  Biso   1.000  H
  H190     1.0000 0.51599  0.68937  0.90203  Biso   1.000  H
  H191     1.0000 0.51599  0.68937  0.56197  Biso   1.000  H
  H192     1.0000 0.86940  0.33596  0.90203  Biso   1.000  H
  C139     1.0000 0.03237  0.85233  0.89233  Biso   1.000  C
  C140     1.0000 0.99967  0.81963  0.92503  Biso   1.000  C
  C141     1.0000 0.93097  0.75093  0.99373  Biso   1.000  C
  C142     1.0000 0.89887  0.71883  0.02583  Biso   1.000  C
  C143     1.0000 0.19977  0.01973  0.72493  Biso   1.000  C
  C144     1.0000 0.23247  0.05243  0.69223  Biso   1.000  C
  C145     1.0000 0.30117  0.12113  0.62353  Biso   1.000  C
  C146     1.0000 0.33327  0.15323  0.59143  Biso   1.000  C
  C147     1.0000 0.03237  0.01973  0.72493  Biso   1.000  C
  C148     1.0000 0.99967  0.05243  0.69223  Biso   1.000  C
  C149     1.0000 0.93097  0.12113  0.62353  Biso   1.000  C
  C150     1.0000 0.89887  0.15323  0.59143  Biso   1.000  C
  C151     1.0000 0.19977  0.85233  0.89233  Biso   1.000  C
  C152     1.0000 0.23247  0.81963  0.92503  Biso   1.000  C
  C153     1.0000 0.30117  0.75093  0.99373  Biso   1.000  C
  C154     1.0000 0.33327  0.71883  0.02583  Biso   1.000  C
  C155     1.0000 0.19977  0.85233  0.72493  Biso   1.000  C
  C156     1.0000 0.23247  0.81963  0.69223  Biso   1.000  C
  C157     1.0000 0.30117  0.75093  0.62353  Biso   1.000  C
  C158     1.0000 0.33327  0.71883  0.59143  Biso   1.000  C
  C159     1.0000 0.03237  0.01973  0.89233  Biso   1.000  C
  C160     1.0000 0.99967  0.05243  0.92503  Biso   1.000  C
  C161     1.0000 0.93097  0.12113  0.99373  Biso   1.000  C
  C162     1.0000 0.89887  0.15323  0.02583  Biso   1.000  C
  C163     1.0000 0.69977  0.35233  0.22493  Biso   1.000  C
  C164     1.0000 0.73247  0.31963  0.19223  Biso   1.000  C
  C165     1.0000 0.80117  0.25093  0.12353  Biso   1.000  C
  C166     1.0000 0.83327  0.21883  0.09143  Biso   1.000  C
  C167     1.0000 0.53237  0.51973  0.39233  Biso   1.000  C
  C168     1.0000 0.49967  0.55243  0.42503  Biso   1.000  C
  C169     1.0000 0.43097  0.62113  0.49373  Biso   1.000  C
  C170     1.0000 0.39887  0.65323  0.52583  Biso   1.000  C
  C171     1.0000 0.69977  0.35233  0.39233  Biso   1.000  C
  C172     1.0000 0.73247  0.31963  0.42503  Biso   1.000  C
  C173     1.0000 0.80117  0.25093  0.49373  Biso   1.000  C
  C174     1.0000 0.83327  0.21883  0.52583  Biso   1.000  C
  C175     1.0000 0.53237  0.51973  0.22493  Biso   1.000  C
  C176     1.0000 0.49967  0.55243  0.19223  Biso   1.000  C
  C177     1.0000 0.43097  0.62113  0.12353  Biso   1.000  C
  C178     1.0000 0.39887  0.65323  0.09143  Biso   1.000  C
  C179     1.0000 0.53237  0.35233  0.39233  Biso   1.000  C
  C180     1.0000 0.49967  0.31963  0.42503  Biso   1.000  C
  C181     1.0000 0.43097  0.25093  0.49373  Biso   1.000  C
  C182     1.0000 0.39887  0.21883  0.52583  Biso   1.000  C
  C183     1.0000 0.69977  0.51973  0.22493  Biso   1.000  C
  C184     1.0000 0.73247  0.55243  0.19223  Biso   1.000  C
  C185     1.0000 0.80117  0.62113  0.12353  Biso   1.000  C
  C186     1.0000 0.83327  0.65323  0.09143  Biso   1.000  C
  C187     1.0000 0.94477  0.83953  0.94253  Biso   1.000  C
  C188     1.0000 0.91257  0.80533  0.97573  Biso   1.000  C
  C189     1.0000 0.24997  0.06993  0.63733  Biso   1.000  C
  C190     1.0000 0.28317  0.10313  0.60513  Biso   1.000  C
  C191     1.0000 0.01957  0.76473  0.94253  Biso   1.000  C
  C192     1.0000 0.98537  0.73253  0.97573  Biso   1.000  C
  C193     1.0000 0.24997  0.06993  0.71213  Biso   1.000  C
  C194     1.0000 0.28317  0.10313  0.67793  Biso   1.000  C
  C195     1.0000 0.01957  0.06993  0.63733  Biso   1.000  C
  C196     1.0000 0.98537  0.10313  0.60513  Biso   1.000  C
  C197     1.0000 0.24997  0.76473  0.94253  Biso   1.000  C
  C198     1.0000 0.28317  0.73253  0.97573  Biso   1.000  C
  C199     1.0000 0.94477  0.06993  0.71213  Biso   1.000  C
  C200     1.0000 0.91257  0.10313  0.67793  Biso   1.000  C
  C201     1.0000 0.24997  0.83953  0.94253  Biso   1.000  C
  C202     1.0000 0.28317  0.80533  0.97573  Biso   1.000  C
  C203     1.0000 0.24997  0.76473  0.71213  Biso   1.000  C
  C204     1.0000 0.28317  0.73253  0.67793  Biso   1.000  C
  C205     1.0000 0.94477  0.06993  0.94253  Biso   1.000  C
  C206     1.0000 0.91257  0.10313  0.97573  Biso   1.000  C
  C207     1.0000 0.24997  0.83953  0.63733  Biso   1.000  C
  C208     1.0000 0.28317  0.80533  0.60513  Biso   1.000  C
  C209     1.0000 0.01957  0.06993  0.94253  Biso   1.000  C
  C210     1.0000 0.98537  0.10313  0.97573  Biso   1.000  C
  C211     1.0000 0.78737  0.30213  0.17473  Biso   1.000  C
  C212     1.0000 0.81957  0.26893  0.14153  Biso   1.000  C
  C213     1.0000 0.48217  0.53253  0.47993  Biso   1.000  C
  C214     1.0000 0.44897  0.56673  0.51213  Biso   1.000  C
  C215     1.0000 0.71257  0.30213  0.17473  Biso   1.000  C
  C216     1.0000 0.74677  0.26893  0.14153  Biso   1.000  C
  C217     1.0000 0.48217  0.60733  0.40513  Biso   1.000  C
  C218     1.0000 0.44897  0.63953  0.43933  Biso   1.000  C
  C219     1.0000 0.71257  0.30213  0.47993  Biso   1.000  C
  C220     1.0000 0.74677  0.26893  0.51213  Biso   1.000  C
  C221     1.0000 0.48217  0.53253  0.17473  Biso   1.000  C
  C222     1.0000 0.44897  0.56673  0.14153  Biso   1.000  C
  C223     1.0000 0.78737  0.30213  0.40513  Biso   1.000  C
  C224     1.0000 0.81957  0.26893  0.43933  Biso   1.000  C
  C225     1.0000 0.48217  0.60733  0.17473  Biso   1.000  C
  C226     1.0000 0.44897  0.63953  0.14153  Biso   1.000  C
  C227     1.0000 0.48217  0.30213  0.40513  Biso   1.000  C
  C228     1.0000 0.44897  0.26893  0.43933  Biso   1.000  C
  C229     1.0000 0.78737  0.53253  0.17473  Biso   1.000  C
  C230     1.0000 0.81957  0.56673  0.14153  Biso   1.000  C
  C231     1.0000 0.48217  0.30213  0.47993  Biso   1.000  C
  C232     1.0000 0.44897  0.26893  0.51213  Biso   1.000  C
  C233     1.0000 0.71257  0.60733  0.17473  Biso   1.000  C
  C234     1.0000 0.74677  0.63953  0.14153  Biso   1.000  C
  C235     1.0000 0.88267  0.70263  0.08083  Biso   1.000  C
  C236     1.0000 0.38827  0.13063  0.57523  Biso   1.000  C
  C237     1.0000 0.88267  0.70263  0.00323  Biso   1.000  C
  C238     1.0000 0.92327  0.74323  0.88703  Biso   1.000  C
  C239     1.0000 0.31067  0.20823  0.57523  Biso   1.000  C
  C240     1.0000 0.19447  0.24323  0.61583  Biso   1.000  C
  C241     1.0000 0.88267  0.20823  0.57523  Biso   1.000  C
  C242     1.0000 0.31067  0.70263  0.08083  Biso   1.000  C
  C243     1.0000 0.88267  0.13063  0.57523  Biso   1.000  C
  C244     1.0000 0.92327  0.01443  0.61583  Biso   1.000  C
  C245     1.0000 0.38827  0.70263  0.00323  Biso   1.000  C
  C246     1.0000 0.42327  0.74323  0.88703  Biso   1.000  C
  C247     1.0000 0.38827  0.70263  0.57523  Biso   1.000  C
  C248     1.0000 0.42327  0.74323  0.61583  Biso   1.000  C
  C249     1.0000 0.88267  0.20823  0.00323  Biso   1.000  C
  C250     1.0000 0.92327  0.24323  0.88703  Biso   1.000  C
  C251     1.0000 0.31067  0.70263  0.57523  Biso   1.000  C
  C252     1.0000 0.88267  0.13063  0.08083  Biso   1.000  C
  C253     1.0000 0.84947  0.24143  0.03643  Biso   1.000  C
  C254     1.0000 0.80887  0.35763  0.00143  Biso   1.000  C
  C255     1.0000 0.34387  0.66943  0.54203  Biso   1.000  C
  C256     1.0000 0.84947  0.16383  0.11403  Biso   1.000  C
  C257     1.0000 0.42147  0.66943  0.54203  Biso   1.000  C
  C258     1.0000 0.53767  0.62883  0.50143  Biso   1.000  C
  C259     1.0000 0.84947  0.24143  0.54203  Biso   1.000  C
  C260     1.0000 0.42147  0.66943  0.03643  Biso   1.000  C
  C261     1.0000 0.53767  0.62883  0.00143  Biso   1.000  C
  C262     1.0000 0.84947  0.16383  0.54203  Biso   1.000  C
  C263     1.0000 0.80887  0.12883  0.50143  Biso   1.000  C
  C264     1.0000 0.34387  0.66943  0.11403  Biso   1.000  C
  C265     1.0000 0.34387  0.24143  0.54203  Biso   1.000  C
  C266     1.0000 0.30887  0.35763  0.50143  Biso   1.000  C
  C267     1.0000 0.84947  0.66943  0.11403  Biso   1.000  C
  C268     1.0000 0.42147  0.16383  0.54203  Biso   1.000  C
  C269     1.0000 0.84947  0.66943  0.03643  Biso   1.000  C
  C270     1.0000 0.80887  0.62883  0.00143  Biso   1.000  C
  C271     1.0000 0.86607  0.68603  0.94263  Biso   1.000  C
  C272     1.0000 0.25007  0.30203  0.55863  Biso   1.000  C
  C273     1.0000 0.86607  0.07003  0.55863  Biso   1.000  C
  C274     1.0000 0.48207  0.68603  0.94263  Biso   1.000  C
  C275     1.0000 0.48207  0.68603  0.55863  Biso   1.000  C
  C276     1.0000 0.86607  0.30203  0.94263  Biso   1.000  C
  N13      1.0000 0.89307  0.71303  0.94463  Biso   1.000  N
  N14      1.0000 0.25207  0.24603  0.58563  Biso   1.000  N
  N15      1.0000 0.89307  0.07203  0.58563  Biso   1.000  N
  N16      1.0000 0.42607  0.71303  0.94463  Biso   1.000  N
  N17      1.0000 0.42607  0.71303  0.58563  Biso   1.000  N
  N18      1.0000 0.89307  0.24603  0.94463  Biso   1.000  N
  N19      1.0000 0.83907  0.30003  0.99863  Biso   1.000  N
  N20      1.0000 0.48007  0.65903  0.53163  Biso   1.000  N
  N21      1.0000 0.48007  0.65903  0.99863  Biso   1.000  N
  N22      1.0000 0.83907  0.12603  0.53163  Biso   1.000  N
  N23      1.0000 0.30607  0.30003  0.53163  Biso   1.000  N
  N24      1.0000 0.83907  0.65903  0.99863  Biso   1.000  N
  O27      1.0000 0.08507  0.82863  0.87783  Biso   1.000  O
  O28      1.0000 0.18527  0.00523  0.77763  Biso   1.000  O
  O29      1.0000 0.00867  0.90503  0.87783  Biso   1.000  O
  O30      1.0000 0.18527  0.00523  0.70123  Biso   1.000  O
  O31      1.0000 0.00867  0.00523  0.77763  Biso   1.000  O
  O32      1.0000 0.18527  0.90503  0.87783  Biso   1.000  O
  O33      1.0000 0.08507  0.00523  0.70123  Biso   1.000  O
  O34      1.0000 0.18527  0.82863  0.87783  Biso   1.000  O
  O35      1.0000 0.18527  0.90503  0.70123  Biso   1.000  O
  O36      1.0000 0.08507  0.00523  0.87783  Biso   1.000  O
  O37      1.0000 0.18527  0.82863  0.77763  Biso   1.000  O
  O38      1.0000 0.00867  0.00523  0.87783  Biso   1.000  O
  O39      1.0000 0.64707  0.36683  0.23943  Biso   1.000  O
  O40      1.0000 0.54687  0.54343  0.33963  Biso   1.000  O
  O41      1.0000 0.72347  0.36683  0.23943  Biso   1.000  O
  O42      1.0000 0.54687  0.46703  0.41603  Biso   1.000  O
  O43      1.0000 0.72347  0.36683  0.33963  Biso   1.000  O
  O44      1.0000 0.54687  0.54343  0.23943  Biso   1.000  O
  O45      1.0000 0.64707  0.36683  0.41603  Biso   1.000  O
  O46      1.0000 0.54687  0.46703  0.23943  Biso   1.000  O
  O47      1.0000 0.54687  0.36683  0.41603  Biso   1.000  O
  O48      1.0000 0.64707  0.54343  0.23943  Biso   1.000  O
  O49      1.0000 0.54687  0.36683  0.33963  Biso   1.000  O
  O50      1.0000 0.72347  0.46703  0.23943  Biso   1.000  O
  O51      1.0000 0.11607  0.93603  0.80863  Biso   1.000  O
  O52      1.0000 0.61607  0.43603  0.30863  Biso   1.000  O
  H193     1.0000 0.89572  0.71568  0.10049  Biso   1.000  H
  H194     1.0000 0.40793  0.08487  0.58828  Biso   1.000  H
  H195     1.0000 0.89572  0.22789  0.58828  Biso   1.000  H
  H196     1.0000 0.26491  0.71568  0.10049  Biso   1.000  H
  H197     1.0000 0.26491  0.71568  0.58828  Biso   1.000  H
  H198     1.0000 0.89572  0.08487  0.10049  Biso   1.000  H
  H199     1.0000 0.32462  0.65615  0.52875  Biso   1.000  H
  H200     1.0000 0.83642  0.14417  0.15979  Biso   1.000  H
  H201     1.0000 0.83619  0.28724  0.52875  Biso   1.000  H
  H202     1.0000 0.32462  0.65615  0.15984  Biso   1.000  H
  H203     1.0000 0.83619  0.65615  0.15984  Biso   1.000  H
  H204     1.0000 0.46723  0.14417  0.52898  Biso   1.000  H
