data_image0
_cell_length_a       18.3098
_cell_length_b       18.3098
_cell_length_c       18.3098
_cell_angle_alpha    60
_cell_angle_beta     60
_cell_angle_gamma    60

_symmetry_space_group_name_H-M    "P 1"
_symmetry_int_tables_number       1

loop_
  _symmetry_equiv_pos_as_xyz
  'x, y, z'

loop_
  _atom_site_label
  _atom_site_occupancy
  _atom_site_fract_x
  _atom_site_fract_y
  _atom_site_fract_z
  _atom_site_thermal_displace_type
  _atom_site_B_iso_or_equiv
  _atom_site_type_symbol
  C1       1.0000 0.20657  0.38027  0.20658  Biso   1.000  C
  C2       1.0000 0.38026  0.20658  0.20658  Biso   1.000  C
  C3       1.0000 0.20657  0.20658  0.20658  Biso   1.000  C
  C4       1.0000 0.20657  0.20658  0.38027  Biso   1.000  C
  C5       1.0000 0.61974  0.79342  0.79342  Biso   1.000  C
  C6       1.0000 0.79343  0.61973  0.79342  Biso   1.000  C
  C7       1.0000 0.79343  0.79342  0.79342  Biso   1.000  C
  C8       1.0000 0.79343  0.79342  0.61973  Biso   1.000  C
  C9       1.0000 0.04510  0.56570  0.04510  Biso   1.000  C
  C10      1.0000 0.56570  0.04510  0.34410  Biso   1.000  C
  C11      1.0000 0.04510  0.34410  0.04510  Biso   1.000  C
  C12      1.0000 0.34410  0.04510  0.56570  Biso   1.000  C
  C13      1.0000 0.04510  0.04510  0.34410  Biso   1.000  C
  C14      1.0000 0.56570  0.34410  0.04510  Biso   1.000  C
  C15      1.0000 0.04510  0.04510  0.56570  Biso   1.000  C
  C16      1.0000 0.34410  0.56570  0.04510  Biso   1.000  C
  C17      1.0000 0.04510  0.34410  0.56570  Biso   1.000  C
  C18      1.0000 0.56570  0.04510  0.04510  Biso   1.000  C
  C19      1.0000 0.04510  0.56570  0.34410  Biso   1.000  C
  C20      1.0000 0.34410  0.04510  0.04510  Biso   1.000  C
  C21      1.0000 0.43430  0.95490  0.95490  Biso   1.000  C
  C22      1.0000 0.95490  0.43430  0.65590  Biso   1.000  C
  C23      1.0000 0.65590  0.95490  0.95490  Biso   1.000  C
  C24      1.0000 0.95490  0.65590  0.43430  Biso   1.000  C
  C25      1.0000 0.95490  0.95490  0.65590  Biso   1.000  C
  C26      1.0000 0.65590  0.43430  0.95490  Biso   1.000  C
  C27      1.0000 0.95490  0.95490  0.43430  Biso   1.000  C
  C28      1.0000 0.43430  0.65590  0.95490  Biso   1.000  C
  C29      1.0000 0.65590  0.95490  0.43430  Biso   1.000  C
  C30      1.0000 0.95490  0.43430  0.95490  Biso   1.000  C
  C31      1.0000 0.43430  0.95490  0.65590  Biso   1.000  C
  C32      1.0000 0.95490  0.65590  0.95490  Biso   1.000  C
  C33      1.0000 0.02677  0.53915  0.02677  Biso   1.000  C
  C34      1.0000 0.53915  0.02677  0.40731  Biso   1.000  C
  C35      1.0000 0.02677  0.40731  0.02677  Biso   1.000  C
  C36      1.0000 0.40731  0.02677  0.53915  Biso   1.000  C
  C37      1.0000 0.02677  0.02677  0.40731  Biso   1.000  C
  C38      1.0000 0.53915  0.40731  0.02677  Biso   1.000  C
  C39      1.0000 0.02677  0.02677  0.53915  Biso   1.000  C
  C40      1.0000 0.40731  0.53915  0.02677  Biso   1.000  C
  C41      1.0000 0.02677  0.40731  0.53915  Biso   1.000  C
  C42      1.0000 0.53915  0.02677  0.02677  Biso   1.000  C
  C43      1.0000 0.02677  0.53915  0.40731  Biso   1.000  C
  C44      1.0000 0.40731  0.02677  0.02677  Biso   1.000  C
  C45      1.0000 0.46085  0.97323  0.97323  Biso   1.000  C
  C46      1.0000 0.97323  0.46085  0.59269  Biso   1.000  C
  C47      1.0000 0.59269  0.97323  0.97323  Biso   1.000  C
  C48      1.0000 0.97323  0.59269  0.46085  Biso   1.000  C
  C49      1.0000 0.97323  0.97323  0.59269  Biso   1.000  C
  C50      1.0000 0.59269  0.46085  0.97323  Biso   1.000  C
  C51      1.0000 0.97323  0.97323  0.46085  Biso   1.000  C
  C52      1.0000 0.46085  0.59269  0.97323  Biso   1.000  C
  C53      1.0000 0.59269  0.97323  0.46085  Biso   1.000  C
  C54      1.0000 0.97323  0.46085  0.97323  Biso   1.000  C
  C55      1.0000 0.46085  0.97323  0.59269  Biso   1.000  C
  C56      1.0000 0.97323  0.59269  0.97323  Biso   1.000  C
  C57      1.0000 0.11154  0.38846  0.11154  Biso   1.000  C
  C58      1.0000 0.05373  0.44627  0.05373  Biso   1.000  C
  C59      1.0000 0.38846  0.11154  0.38846  Biso   1.000  C
  C60      1.0000 0.44627  0.05373  0.44627  Biso   1.000  C
  C61      1.0000 0.11154  0.11154  0.38846  Biso   1.000  C
  C62      1.0000 0.05373  0.05373  0.44627  Biso   1.000  C
  C63      1.0000 0.38846  0.38846  0.11154  Biso   1.000  C
  C64      1.0000 0.44627  0.44627  0.05373  Biso   1.000  C
  C65      1.0000 0.11154  0.38846  0.38846  Biso   1.000  C
  C66      1.0000 0.05373  0.44627  0.44627  Biso   1.000  C
  C67      1.0000 0.38846  0.11154  0.11154  Biso   1.000  C
  C68      1.0000 0.44627  0.05373  0.05373  Biso   1.000  C
  C69      1.0000 0.61154  0.88846  0.88846  Biso   1.000  C
  C70      1.0000 0.55373  0.94627  0.94627  Biso   1.000  C
  C71      1.0000 0.88846  0.61154  0.61154  Biso   1.000  C
  C72      1.0000 0.94627  0.55373  0.55373  Biso   1.000  C
  C73      1.0000 0.88846  0.88846  0.61154  Biso   1.000  C
  C74      1.0000 0.94627  0.94627  0.55373  Biso   1.000  C
  C75      1.0000 0.61154  0.61154  0.88846  Biso   1.000  C
  C76      1.0000 0.55373  0.55373  0.94627  Biso   1.000  C
  C77      1.0000 0.61154  0.88846  0.61154  Biso   1.000  C
  C78      1.0000 0.55373  0.94627  0.55373  Biso   1.000  C
  C79      1.0000 0.88846  0.61154  0.88846  Biso   1.000  C
  C80      1.0000 0.94627  0.55373  0.94627  Biso   1.000  C
  C81      1.0000 0.25000  0.25000  0.25000  Biso   1.000  C
  C82      1.0000 0.75000  0.75000  0.75000  Biso   1.000  C
  C83      1.0000 0.13372  0.42766  0.13372  Biso   1.000  C
  C84      1.0000 0.42766  0.13372  0.30490  Biso   1.000  C
  C85      1.0000 0.13372  0.30490  0.13372  Biso   1.000  C
  C86      1.0000 0.30490  0.13372  0.42766  Biso   1.000  C
  C87      1.0000 0.13372  0.13372  0.30490  Biso   1.000  C
  C88      1.0000 0.42766  0.30490  0.13372  Biso   1.000  C
  C89      1.0000 0.13372  0.13372  0.42766  Biso   1.000  C
  C90      1.0000 0.30490  0.42766  0.13372  Biso   1.000  C
  C91      1.0000 0.13372  0.30490  0.42766  Biso   1.000  C
  C92      1.0000 0.42766  0.13372  0.13372  Biso   1.000  C
  C93      1.0000 0.13372  0.42766  0.30490  Biso   1.000  C
  C94      1.0000 0.30490  0.13372  0.13372  Biso   1.000  C
  C95      1.0000 0.57234  0.86628  0.86628  Biso   1.000  C
  C96      1.0000 0.86628  0.57234  0.69510  Biso   1.000  C
  C97      1.0000 0.69510  0.86628  0.86628  Biso   1.000  C
  C98      1.0000 0.86628  0.69510  0.57234  Biso   1.000  C
  C99      1.0000 0.86628  0.86628  0.69510  Biso   1.000  C
  C100     1.0000 0.69510  0.57234  0.86628  Biso   1.000  C
  C101     1.0000 0.86628  0.86628  0.57234  Biso   1.000  C
  C102     1.0000 0.57234  0.69510  0.86628  Biso   1.000  C
  C103     1.0000 0.69510  0.86628  0.57234  Biso   1.000  C
  C104     1.0000 0.86628  0.57234  0.86628  Biso   1.000  C
  C105     1.0000 0.57234  0.86628  0.69510  Biso   1.000  C
  C106     1.0000 0.86628  0.69510  0.86628  Biso   1.000  C
  O1       1.0000 0.58685  0.23946  0.58684  Biso   1.000  O
  O2       1.0000 0.58685  0.41315  0.58684  Biso   1.000  O
  O3       1.0000 0.41316  0.41315  0.58684  Biso   1.000  O
  O4       1.0000 0.58685  0.41315  0.41315  Biso   1.000  O
  O5       1.0000 0.00001  0.82631  1.00000  Biso   1.000  O
  O6       1.0000 0.00001  1.00000  1.00000  Biso   1.000  O
  O7       1.0000 0.17370  0.82631  1.00000  Biso   1.000  O
  O8       1.0000 0.00001  0.82631  0.17369  Biso   1.000  O
  O9       1.0000 0.44933  0.05403  0.74832  Biso   1.000  O
  O10      1.0000 0.74833  0.57463  0.44932  Biso   1.000  O
  O11      1.0000 0.22773  0.27563  0.74832  Biso   1.000  O
  O12      1.0000 0.74833  0.57463  0.22772  Biso   1.000  O
  O13      1.0000 0.22773  0.57463  0.44932  Biso   1.000  O
  O14      1.0000 0.74833  0.27563  0.74832  Biso   1.000  O
  O15      1.0000 0.44933  0.57463  0.22772  Biso   1.000  O
  O16      1.0000 0.74833  0.05403  0.74832  Biso   1.000  O
  O17      1.0000 0.74833  0.27563  0.22772  Biso   1.000  O
  O18      1.0000 0.44933  0.57463  0.74832  Biso   1.000  O
  O19      1.0000 0.74833  0.05403  0.44932  Biso   1.000  O
  O20      1.0000 0.22773  0.57463  0.74832  Biso   1.000  O
  O21      1.0000 0.13753  0.66483  0.83852  Biso   1.000  O
  O22      1.0000 0.83853  0.18543  0.13752  Biso   1.000  O
  O23      1.0000 0.35913  0.66483  0.83852  Biso   1.000  O
  O24      1.0000 0.83853  0.96383  0.35912  Biso   1.000  O
  O25      1.0000 0.35913  0.66483  0.13752  Biso   1.000  O
  O26      1.0000 0.83853  0.18543  0.83852  Biso   1.000  O
  O27      1.0000 0.13753  0.66483  0.35912  Biso   1.000  O
  O28      1.0000 0.83853  0.96383  0.83852  Biso   1.000  O
  O29      1.0000 0.83853  0.66483  0.35912  Biso   1.000  O
  O30      1.0000 0.13753  0.18543  0.83852  Biso   1.000  O
  O31      1.0000 0.83853  0.66483  0.13752  Biso   1.000  O
  O32      1.0000 0.35913  0.96383  0.83852  Biso   1.000  O
  O33      1.0000 0.38612  0.08058  0.76665  Biso   1.000  O
  O34      1.0000 0.76666  0.59296  0.38611  Biso   1.000  O
  O35      1.0000 0.25428  0.21242  0.76665  Biso   1.000  O
  O36      1.0000 0.76666  0.59296  0.25427  Biso   1.000  O
  O37      1.0000 0.25428  0.59296  0.38611  Biso   1.000  O
  O38      1.0000 0.76666  0.21242  0.76665  Biso   1.000  O
  O39      1.0000 0.38612  0.59296  0.25427  Biso   1.000  O
  O40      1.0000 0.76666  0.08058  0.76665  Biso   1.000  O
  O41      1.0000 0.76666  0.21242  0.25427  Biso   1.000  O
  O42      1.0000 0.38612  0.59296  0.76665  Biso   1.000  O
  O43      1.0000 0.76666  0.08058  0.38611  Biso   1.000  O
  O44      1.0000 0.25428  0.59296  0.76665  Biso   1.000  O
  O45      1.0000 0.20074  0.64650  0.82019  Biso   1.000  O
  O46      1.0000 0.82020  0.15888  0.20073  Biso   1.000  O
  O47      1.0000 0.33258  0.64650  0.82019  Biso   1.000  O
  O48      1.0000 0.82020  0.02704  0.33257  Biso   1.000  O
  O49      1.0000 0.33258  0.64650  0.20073  Biso   1.000  O
  O50      1.0000 0.82020  0.15888  0.82019  Biso   1.000  O
  O51      1.0000 0.20074  0.64650  0.33257  Biso   1.000  O
  O52      1.0000 0.82020  0.02704  0.82019  Biso   1.000  O
  O53      1.0000 0.82020  0.64650  0.33257  Biso   1.000  O
  O54      1.0000 0.20074  0.15888  0.82019  Biso   1.000  O
  O55      1.0000 0.82020  0.64650  0.20073  Biso   1.000  O
  O56      1.0000 0.33258  0.02704  0.82019  Biso   1.000  O
  O57      1.0000 0.40497  0.23127  0.68188  Biso   1.000  O
  O58      1.0000 0.34716  0.17346  0.73969  Biso   1.000  O
  O59      1.0000 0.68189  0.50819  0.40496  Biso   1.000  O
  O60      1.0000 0.73970  0.56600  0.34715  Biso   1.000  O
  O61      1.0000 0.40497  0.50819  0.40496  Biso   1.000  O
  O62      1.0000 0.34716  0.56600  0.34715  Biso   1.000  O
  O63      1.0000 0.68189  0.23127  0.68188  Biso   1.000  O
  O64      1.0000 0.73970  0.17346  0.73969  Biso   1.000  O
  O65      1.0000 0.68189  0.23127  0.40496  Biso   1.000  O
  O66      1.0000 0.73970  0.17346  0.34715  Biso   1.000  O
  O67      1.0000 0.40497  0.50819  0.68188  Biso   1.000  O
  O68      1.0000 0.34716  0.56600  0.73969  Biso   1.000  O
  O69      1.0000 0.18189  0.73127  0.90496  Biso   1.000  O
  O70      1.0000 0.23970  0.67346  0.84715  Biso   1.000  O
  O71      1.0000 0.90497  0.00819  0.18188  Biso   1.000  O
  O72      1.0000 0.84716  0.06600  0.23969  Biso   1.000  O
  O73      1.0000 0.18189  0.73127  0.18188  Biso   1.000  O
  O74      1.0000 0.23970  0.67346  0.23969  Biso   1.000  O
  O75      1.0000 0.90497  0.00819  0.90496  Biso   1.000  O
  O76      1.0000 0.84716  0.06600  0.84715  Biso   1.000  O
  O77      1.0000 0.90497  0.73127  0.18188  Biso   1.000  O
  O78      1.0000 0.84716  0.67346  0.23969  Biso   1.000  O
  O79      1.0000 0.18189  0.00819  0.90496  Biso   1.000  O
  O80      1.0000 0.23970  0.06600  0.84715  Biso   1.000  O
  O81      1.0000 0.54343  0.36973  0.54342  Biso   1.000  O
  O82      1.0000 0.04343  0.86973  0.04342  Biso   1.000  O
  O83      1.0000 0.48853  0.19207  0.65970  Biso   1.000  O
  O84      1.0000 0.65971  0.48601  0.48852  Biso   1.000  O
  O85      1.0000 0.36577  0.31483  0.65970  Biso   1.000  O
  O86      1.0000 0.65971  0.48601  0.36576  Biso   1.000  O
  O87      1.0000 0.36577  0.48601  0.48852  Biso   1.000  O
  O88      1.0000 0.65971  0.31483  0.65970  Biso   1.000  O
  O89      1.0000 0.48853  0.48601  0.36576  Biso   1.000  O
  O90      1.0000 0.65971  0.19207  0.65970  Biso   1.000  O
  O91      1.0000 0.65971  0.31483  0.36576  Biso   1.000  O
  O92      1.0000 0.48853  0.48601  0.65970  Biso   1.000  O
  O93      1.0000 0.65971  0.19207  0.48852  Biso   1.000  O
  O94      1.0000 0.36577  0.48601  0.65970  Biso   1.000  O
  O95      1.0000 0.09833  0.75345  0.92714  Biso   1.000  O
  O96      1.0000 0.92715  0.04739  0.09832  Biso   1.000  O
  O97      1.0000 0.22109  0.75345  0.92714  Biso   1.000  O
  O98      1.0000 0.92715  0.92463  0.22108  Biso   1.000  O
  O99      1.0000 0.22109  0.75345  0.09832  Biso   1.000  O
  O100     1.0000 0.92715  0.04739  0.92714  Biso   1.000  O
  O101     1.0000 0.09833  0.75345  0.22108  Biso   1.000  O
  O102     1.0000 0.92715  0.92463  0.92714  Biso   1.000  O
  O103     1.0000 0.92715  0.75345  0.22108  Biso   1.000  O
  O104     1.0000 0.09833  0.04739  0.92714  Biso   1.000  O
  O105     1.0000 0.92715  0.75345  0.09832  Biso   1.000  O
  O106     1.0000 0.22109  0.92463  0.92714  Biso   1.000  O
