data_image0
_cell_length_a       18.283
_cell_length_b       18.283
_cell_length_c       18.283
_cell_angle_alpha    60
_cell_angle_beta     60
_cell_angle_gamma    60

_symmetry_space_group_name_H-M    "P 1"
_symmetry_int_tables_number       1

loop_
  _symmetry_equiv_pos_as_xyz
  'x, y, z'

loop_
  _atom_site_label
  _atom_site_occupancy
  _atom_site_fract_x
  _atom_site_fract_y
  _atom_site_fract_z
  _atom_site_thermal_displace_type
  _atom_site_B_iso_or_equiv
  _atom_site_type_symbol
  Zn1      1.0000 0.20670  0.37990  0.20670  Biso   1.000  Zn
  Zn2      1.0000 0.37990  0.20670  0.20670  Biso   1.000  Zn
  Zn3      1.0000 0.20670  0.20670  0.20670  Biso   1.000  Zn
  Zn4      1.0000 0.20670  0.20670  0.37990  Biso   1.000  Zn
  Zn5      1.0000 0.62010  0.79330  0.79330  Biso   1.000  Zn
  Zn6      1.0000 0.79330  0.62010  0.79330  Biso   1.000  Zn
  Zn7      1.0000 0.79330  0.79330  0.79330  Biso   1.000  Zn
  Zn8      1.0000 0.79330  0.79330  0.62010  Biso   1.000  Zn
  H1       1.0000 0.04940  0.56380  0.04940  Biso   1.000  H
  H2       1.0000 0.56380  0.04940  0.33740  Biso   1.000  H
  H3       1.0000 0.04940  0.33740  0.04940  Biso   1.000  H
  H4       1.0000 0.33740  0.04940  0.56380  Biso   1.000  H
  H5       1.0000 0.04940  0.04940  0.33740  Biso   1.000  H
  H6       1.0000 0.56380  0.33740  0.04940  Biso   1.000  H
  H7       1.0000 0.04940  0.04940  0.56380  Biso   1.000  H
  H8       1.0000 0.33740  0.56380  0.04940  Biso   1.000  H
  H9       1.0000 0.04940  0.33740  0.56380  Biso   1.000  H
  H10      1.0000 0.56380  0.04940  0.04940  Biso   1.000  H
  H11      1.0000 0.04940  0.56380  0.33740  Biso   1.000  H
  H12      1.0000 0.33740  0.04940  0.04940  Biso   1.000  H
  H13      1.0000 0.43620  0.95060  0.95060  Biso   1.000  H
  H14      1.0000 0.95060  0.43620  0.66260  Biso   1.000  H
  H15      1.0000 0.66260  0.95060  0.95060  Biso   1.000  H
  H16      1.0000 0.95060  0.66260  0.43620  Biso   1.000  H
  H17      1.0000 0.95060  0.95060  0.66260  Biso   1.000  H
  H18      1.0000 0.66260  0.43620  0.95060  Biso   1.000  H
  H19      1.0000 0.95060  0.95060  0.43620  Biso   1.000  H
  H20      1.0000 0.43620  0.66260  0.95060  Biso   1.000  H
  H21      1.0000 0.66260  0.95060  0.43620  Biso   1.000  H
  H22      1.0000 0.95060  0.43620  0.95060  Biso   1.000  H
  H23      1.0000 0.43620  0.95060  0.66260  Biso   1.000  H
  H24      1.0000 0.95060  0.66260  0.95060  Biso   1.000  H
  C1       1.0000 0.02700  0.53820  0.02700  Biso   1.000  C
  C2       1.0000 0.53820  0.02700  0.40780  Biso   1.000  C
  C3       1.0000 0.02700  0.40780  0.02700  Biso   1.000  C
  C4       1.0000 0.40780  0.02700  0.53820  Biso   1.000  C
  C5       1.0000 0.02700  0.02700  0.40780  Biso   1.000  C
  C6       1.0000 0.53820  0.40780  0.02700  Biso   1.000  C
  C7       1.0000 0.02700  0.02700  0.53820  Biso   1.000  C
  C8       1.0000 0.40780  0.53820  0.02700  Biso   1.000  C
  C9       1.0000 0.02700  0.40780  0.53820  Biso   1.000  C
  C10      1.0000 0.53820  0.02700  0.02700  Biso   1.000  C
  C11      1.0000 0.02700  0.53820  0.40780  Biso   1.000  C
  C12      1.0000 0.40780  0.02700  0.02700  Biso   1.000  C
  C13      1.0000 0.46180  0.97300  0.97300  Biso   1.000  C
  C14      1.0000 0.97300  0.46180  0.59220  Biso   1.000  C
  C15      1.0000 0.59220  0.97300  0.97300  Biso   1.000  C
  C16      1.0000 0.97300  0.59220  0.46180  Biso   1.000  C
  C17      1.0000 0.97300  0.97300  0.59220  Biso   1.000  C
  C18      1.0000 0.59220  0.46180  0.97300  Biso   1.000  C
  C19      1.0000 0.97300  0.97300  0.46180  Biso   1.000  C
  C20      1.0000 0.46180  0.59220  0.97300  Biso   1.000  C
  C21      1.0000 0.59220  0.97300  0.46180  Biso   1.000  C
  C22      1.0000 0.97300  0.46180  0.97300  Biso   1.000  C
  C23      1.0000 0.46180  0.97300  0.59220  Biso   1.000  C
  C24      1.0000 0.97300  0.59220  0.97300  Biso   1.000  C
  C25      1.0000 0.11070  0.38930  0.11070  Biso   1.000  C
  C26      1.0000 0.05420  0.44580  0.05420  Biso   1.000  C
  C27      1.0000 0.38930  0.11070  0.38930  Biso   1.000  C
  C28      1.0000 0.44580  0.05420  0.44580  Biso   1.000  C
  C29      1.0000 0.11070  0.11070  0.38930  Biso   1.000  C
  C30      1.0000 0.05420  0.05420  0.44580  Biso   1.000  C
  C31      1.0000 0.38930  0.38930  0.11070  Biso   1.000  C
  C32      1.0000 0.44580  0.44580  0.05420  Biso   1.000  C
  C33      1.0000 0.11070  0.38930  0.38930  Biso   1.000  C
  C34      1.0000 0.05420  0.44580  0.44580  Biso   1.000  C
  C35      1.0000 0.38930  0.11070  0.11070  Biso   1.000  C
  C36      1.0000 0.44580  0.05420  0.05420  Biso   1.000  C
  C37      1.0000 0.61070  0.88930  0.88930  Biso   1.000  C
  C38      1.0000 0.55420  0.94580  0.94580  Biso   1.000  C
  C39      1.0000 0.88930  0.61070  0.61070  Biso   1.000  C
  C40      1.0000 0.94580  0.55420  0.55420  Biso   1.000  C
  C41      1.0000 0.88930  0.88930  0.61070  Biso   1.000  C
  C42      1.0000 0.94580  0.94580  0.55420  Biso   1.000  C
  C43      1.0000 0.61070  0.61070  0.88930  Biso   1.000  C
  C44      1.0000 0.55420  0.55420  0.94580  Biso   1.000  C
  C45      1.0000 0.61070  0.88930  0.61070  Biso   1.000  C
  C46      1.0000 0.55420  0.94580  0.55420  Biso   1.000  C
  C47      1.0000 0.88930  0.61070  0.88930  Biso   1.000  C
  C48      1.0000 0.94580  0.55420  0.94580  Biso   1.000  C
  O1       1.0000 0.25000  0.25000  0.25000  Biso   1.000  O
  O2       1.0000 0.75000  0.75000  0.75000  Biso   1.000  O
  O3       1.0000 0.13430  0.42670  0.13430  Biso   1.000  O
  O4       1.0000 0.42670  0.13430  0.30470  Biso   1.000  O
  O5       1.0000 0.13430  0.30470  0.13430  Biso   1.000  O
  O6       1.0000 0.30470  0.13430  0.42670  Biso   1.000  O
  O7       1.0000 0.13430  0.13430  0.30470  Biso   1.000  O
  O8       1.0000 0.42670  0.30470  0.13430  Biso   1.000  O
  O9       1.0000 0.13430  0.13430  0.42670  Biso   1.000  O
  O10      1.0000 0.30470  0.42670  0.13430  Biso   1.000  O
  O11      1.0000 0.13430  0.30470  0.42670  Biso   1.000  O
  O12      1.0000 0.42670  0.13430  0.13430  Biso   1.000  O
  O13      1.0000 0.13430  0.42670  0.30470  Biso   1.000  O
  O14      1.0000 0.30470  0.13430  0.13430  Biso   1.000  O
  O15      1.0000 0.57330  0.86570  0.86570  Biso   1.000  O
  O16      1.0000 0.86570  0.57330  0.69530  Biso   1.000  O
  O17      1.0000 0.69530  0.86570  0.86570  Biso   1.000  O
  O18      1.0000 0.86570  0.69530  0.57330  Biso   1.000  O
  O19      1.0000 0.86570  0.86570  0.69530  Biso   1.000  O
  O20      1.0000 0.69530  0.57330  0.86570  Biso   1.000  O
  O21      1.0000 0.86570  0.86570  0.57330  Biso   1.000  O
  O22      1.0000 0.57330  0.69530  0.86570  Biso   1.000  O
  O23      1.0000 0.69530  0.86570  0.57330  Biso   1.000  O
  O24      1.0000 0.86570  0.57330  0.86570  Biso   1.000  O
  O25      1.0000 0.57330  0.86570  0.69530  Biso   1.000  O
  O26      1.0000 0.86570  0.69530  0.86570  Biso   1.000  O
  Zn9      1.0000 0.50248  0.52001  0.33500  Biso   1.000  Zn
  Zn10     1.0000 0.50248  0.52001  0.50893  Biso   1.000  Zn
  Zn11     1.0000 0.32855  0.52001  0.50893  Biso   1.000  Zn
  Zn12     1.0000 0.50248  0.34608  0.50893  Biso   1.000  Zn
  Zn13     1.0000 0.91570  0.93321  0.09606  Biso   1.000  Zn
  Zn14     1.0000 0.91570  0.93321  0.92213  Biso   1.000  Zn
  Zn15     1.0000 0.91570  0.10714  0.92213  Biso   1.000  Zn
  Zn16     1.0000 0.08963  0.93321  0.92213  Biso   1.000  Zn
  H25      1.0000 0.66407  0.68160  0.15087  Biso   1.000  H
  H26      1.0000 0.66407  0.68160  0.37021  Biso   1.000  H
  H27      1.0000 0.14444  0.38129  0.67051  Biso   1.000  H
  H28      1.0000 0.36377  0.16196  0.67051  Biso   1.000  H
  H29      1.0000 0.66407  0.16196  0.37021  Biso   1.000  H
  H30      1.0000 0.66407  0.38129  0.15087  Biso   1.000  H
  H31      1.0000 0.14444  0.68160  0.67051  Biso   1.000  H
  H32      1.0000 0.36377  0.68160  0.67051  Biso   1.000  H
  H33      1.0000 0.66407  0.38129  0.67051  Biso   1.000  H
  H34      1.0000 0.66407  0.16196  0.67051  Biso   1.000  H
  H35      1.0000 0.14444  0.68160  0.37021  Biso   1.000  H
  H36      1.0000 0.36377  0.68160  0.15087  Biso   1.000  H
  H37      1.0000 0.75410  0.77163  0.28018  Biso   1.000  H
  H38      1.0000 0.75410  0.77163  0.06084  Biso   1.000  H
  H39      1.0000 0.05441  0.29126  0.76054  Biso   1.000  H
  H40      1.0000 0.27374  0.07193  0.76054  Biso   1.000  H
  H41      1.0000 0.27374  0.77163  0.06084  Biso   1.000  H
  H42      1.0000 0.05441  0.77163  0.28018  Biso   1.000  H
  H43      1.0000 0.75410  0.29126  0.76054  Biso   1.000  H
  H44      1.0000 0.75410  0.07193  0.76054  Biso   1.000  H
  H45      1.0000 0.05441  0.77163  0.76054  Biso   1.000  H
  H46      1.0000 0.27374  0.77163  0.76054  Biso   1.000  H
  H47      1.0000 0.75410  0.29126  0.06084  Biso   1.000  H
  H48      1.0000 0.75410  0.07193  0.28018  Biso   1.000  H
  C49      1.0000 0.68230  0.69982  0.17780  Biso   1.000  C
  C50      1.0000 0.68230  0.69982  0.30683  Biso   1.000  C
  C51      1.0000 0.17137  0.31791  0.68874  Biso   1.000  C
  C52      1.0000 0.30039  0.18889  0.68874  Biso   1.000  C
  C53      1.0000 0.68230  0.18889  0.30683  Biso   1.000  C
  C54      1.0000 0.68230  0.31791  0.17780  Biso   1.000  C
  C55      1.0000 0.17137  0.69982  0.68874  Biso   1.000  C
  C56      1.0000 0.30039  0.69982  0.68874  Biso   1.000  C
  C57      1.0000 0.68230  0.31791  0.68874  Biso   1.000  C
  C58      1.0000 0.68230  0.18889  0.68874  Biso   1.000  C
  C59      1.0000 0.17137  0.69982  0.30683  Biso   1.000  C
  C60      1.0000 0.30039  0.69982  0.17780  Biso   1.000  C
  C61      1.0000 0.73588  0.75340  0.25325  Biso   1.000  C
  C62      1.0000 0.73588  0.75340  0.12423  Biso   1.000  C
  C63      1.0000 0.11779  0.26434  0.74232  Biso   1.000  C
  C64      1.0000 0.24681  0.13531  0.74232  Biso   1.000  C
  C65      1.0000 0.24681  0.75340  0.12423  Biso   1.000  C
  C66      1.0000 0.11779  0.75340  0.25325  Biso   1.000  C
  C67      1.0000 0.73588  0.26434  0.74232  Biso   1.000  C
  C68      1.0000 0.73588  0.13531  0.74232  Biso   1.000  C
  C69      1.0000 0.11779  0.75340  0.74232  Biso   1.000  C
  C70      1.0000 0.24681  0.75340  0.74232  Biso   1.000  C
  C71      1.0000 0.73588  0.26434  0.12423  Biso   1.000  C
  C72      1.0000 0.73588  0.13531  0.25325  Biso   1.000  C
  C73      1.0000 0.59745  0.61497  0.32699  Biso   1.000  C
  C74      1.0000 0.65546  0.67298  0.26899  Biso   1.000  C
  C75      1.0000 0.32056  0.33808  0.60389  Biso   1.000  C
  C76      1.0000 0.26255  0.28007  0.66190  Biso   1.000  C
  C77      1.0000 0.59745  0.33808  0.32699  Biso   1.000  C
  C78      1.0000 0.65546  0.28007  0.26899  Biso   1.000  C
  C79      1.0000 0.32056  0.61497  0.60389  Biso   1.000  C
  C80      1.0000 0.26255  0.67298  0.66190  Biso   1.000  C
  C81      1.0000 0.59745  0.33808  0.60389  Biso   1.000  C
  C82      1.0000 0.65546  0.28007  0.66190  Biso   1.000  C
  C83      1.0000 0.32056  0.61497  0.32699  Biso   1.000  C
  C84      1.0000 0.26255  0.67298  0.26899  Biso   1.000  C
  C85      1.0000 0.82073  0.83825  0.10406  Biso   1.000  C
  C86      1.0000 0.76272  0.78024  0.16207  Biso   1.000  C
  C87      1.0000 0.09762  0.11514  0.82716  Biso   1.000  C
  C88      1.0000 0.15563  0.17315  0.76915  Biso   1.000  C
  C89      1.0000 0.09762  0.83825  0.10406  Biso   1.000  C
  C90      1.0000 0.15563  0.78024  0.16207  Biso   1.000  C
  C91      1.0000 0.82073  0.11514  0.82716  Biso   1.000  C
  C92      1.0000 0.76272  0.17315  0.76915  Biso   1.000  C
  C93      1.0000 0.09762  0.83825  0.82716  Biso   1.000  C
  C94      1.0000 0.15563  0.78024  0.76915  Biso   1.000  C
  C95      1.0000 0.82073  0.11514  0.10406  Biso   1.000  C
  C96      1.0000 0.76272  0.17315  0.16207  Biso   1.000  C
  O27      1.0000 0.45900  0.47653  0.46544  Biso   1.000  O
  O28      1.0000 0.95917  0.97670  0.96561  Biso   1.000  O
  O29      1.0000 0.57516  0.59269  0.28836  Biso   1.000  O
  O30      1.0000 0.57516  0.59269  0.41020  Biso   1.000  O
  O31      1.0000 0.28192  0.42129  0.58160  Biso   1.000  O
  O32      1.0000 0.40376  0.29945  0.58160  Biso   1.000  O
  O33      1.0000 0.57516  0.29945  0.41020  Biso   1.000  O
  O34      1.0000 0.57516  0.42129  0.28836  Biso   1.000  O
  O35      1.0000 0.28192  0.59269  0.58160  Biso   1.000  O
  O36      1.0000 0.40376  0.59269  0.58160  Biso   1.000  O
  O37      1.0000 0.57516  0.42129  0.58160  Biso   1.000  O
  O38      1.0000 0.57516  0.29945  0.58160  Biso   1.000  O
  O39      1.0000 0.28192  0.59269  0.41020  Biso   1.000  O
  O40      1.0000 0.40376  0.59269  0.28836  Biso   1.000  O
  O41      1.0000 0.84301  0.86054  0.14269  Biso   1.000  O
  O42      1.0000 0.84301  0.86054  0.02085  Biso   1.000  O
  O43      1.0000 0.01441  0.15378  0.84945  Biso   1.000  O
  O44      1.0000 0.13625  0.03194  0.84945  Biso   1.000  O
  O45      1.0000 0.13625  0.86054  0.02085  Biso   1.000  O
  O46      1.0000 0.01441  0.86054  0.14269  Biso   1.000  O
  O47      1.0000 0.84301  0.15378  0.84945  Biso   1.000  O
  O48      1.0000 0.84301  0.03194  0.84945  Biso   1.000  O
  O49      1.0000 0.01441  0.86054  0.84945  Biso   1.000  O
  O50      1.0000 0.13625  0.86054  0.84945  Biso   1.000  O
  O51      1.0000 0.84301  0.15378  0.02085  Biso   1.000  O
  O52      1.0000 0.84301  0.03194  0.14269  Biso   1.000  O
