data_image0
_cell_length_a       18.3054
_cell_length_b       18.3054
_cell_length_c       18.3054
_cell_angle_alpha    60
_cell_angle_beta     60
_cell_angle_gamma    60

_symmetry_space_group_name_H-M    "P 1"
_symmetry_int_tables_number       1

loop_
  _symmetry_equiv_pos_as_xyz
  'x, y, z'

loop_
  _atom_site_label
  _atom_site_occupancy
  _atom_site_fract_x
  _atom_site_fract_y
  _atom_site_fract_z
  _atom_site_thermal_displace_type
  _atom_site_B_iso_or_equiv
  _atom_site_type_symbol
  C1       1.0000 0.20620  0.38140  0.20620  Biso   1.000  C
  C2       1.0000 0.38140  0.20620  0.20620  Biso   1.000  C
  C3       1.0000 0.20620  0.20620  0.20620  Biso   1.000  C
  C4       1.0000 0.20620  0.20620  0.38140  Biso   1.000  C
  C5       1.0000 0.61860  0.79380  0.79380  Biso   1.000  C
  C6       1.0000 0.79380  0.61860  0.79380  Biso   1.000  C
  C7       1.0000 0.79380  0.79380  0.79380  Biso   1.000  C
  C8       1.0000 0.79380  0.79380  0.61860  Biso   1.000  C
  C9       1.0000 0.04910  0.56290  0.04910  Biso   1.000  C
  C10      1.0000 0.56290  0.04910  0.33890  Biso   1.000  C
  C11      1.0000 0.04910  0.33890  0.04910  Biso   1.000  C
  C12      1.0000 0.33890  0.04910  0.56290  Biso   1.000  C
  C13      1.0000 0.04910  0.04910  0.33890  Biso   1.000  C
  C14      1.0000 0.56290  0.33890  0.04910  Biso   1.000  C
  C15      1.0000 0.04910  0.04910  0.56290  Biso   1.000  C
  C16      1.0000 0.33890  0.56290  0.04910  Biso   1.000  C
  C17      1.0000 0.04910  0.33890  0.56290  Biso   1.000  C
  C18      1.0000 0.56290  0.04910  0.04910  Biso   1.000  C
  C19      1.0000 0.04910  0.56290  0.33890  Biso   1.000  C
  C20      1.0000 0.33890  0.04910  0.04910  Biso   1.000  C
  C21      1.0000 0.43710  0.95090  0.95090  Biso   1.000  C
  C22      1.0000 0.95090  0.43710  0.66110  Biso   1.000  C
  C23      1.0000 0.66110  0.95090  0.95090  Biso   1.000  C
  C24      1.0000 0.95090  0.66110  0.43710  Biso   1.000  C
  C25      1.0000 0.95090  0.95090  0.66110  Biso   1.000  C
  C26      1.0000 0.66110  0.43710  0.95090  Biso   1.000  C
  C27      1.0000 0.95090  0.95090  0.43710  Biso   1.000  C
  C28      1.0000 0.43710  0.66110  0.95090  Biso   1.000  C
  C29      1.0000 0.66110  0.95090  0.43710  Biso   1.000  C
  C30      1.0000 0.95090  0.43710  0.95090  Biso   1.000  C
  C31      1.0000 0.43710  0.95090  0.66110  Biso   1.000  C
  C32      1.0000 0.95090  0.66110  0.95090  Biso   1.000  C
  C33      1.0000 0.02610  0.53970  0.02610  Biso   1.000  C
  C34      1.0000 0.53970  0.02610  0.40810  Biso   1.000  C
  C35      1.0000 0.02610  0.40810  0.02610  Biso   1.000  C
  C36      1.0000 0.40810  0.02610  0.53970  Biso   1.000  C
  C37      1.0000 0.02610  0.02610  0.40810  Biso   1.000  C
  C38      1.0000 0.53970  0.40810  0.02610  Biso   1.000  C
  C39      1.0000 0.02610  0.02610  0.53970  Biso   1.000  C
  C40      1.0000 0.40810  0.53970  0.02610  Biso   1.000  C
  C41      1.0000 0.02610  0.40810  0.53970  Biso   1.000  C
  C42      1.0000 0.53970  0.02610  0.02610  Biso   1.000  C
  C43      1.0000 0.02610  0.53970  0.40810  Biso   1.000  C
  C44      1.0000 0.40810  0.02610  0.02610  Biso   1.000  C
  C45      1.0000 0.46030  0.97390  0.97390  Biso   1.000  C
  C46      1.0000 0.97390  0.46030  0.59190  Biso   1.000  C
  C47      1.0000 0.59190  0.97390  0.97390  Biso   1.000  C
  C48      1.0000 0.97390  0.59190  0.46030  Biso   1.000  C
  C49      1.0000 0.97390  0.97390  0.59190  Biso   1.000  C
  C50      1.0000 0.59190  0.46030  0.97390  Biso   1.000  C
  C51      1.0000 0.97390  0.97390  0.46030  Biso   1.000  C
  C52      1.0000 0.46030  0.59190  0.97390  Biso   1.000  C
  C53      1.0000 0.59190  0.97390  0.46030  Biso   1.000  C
  C54      1.0000 0.97390  0.46030  0.97390  Biso   1.000  C
  C55      1.0000 0.46030  0.97390  0.59190  Biso   1.000  C
  C56      1.0000 0.97390  0.59190  0.97390  Biso   1.000  C
  C57      1.0000 0.10850  0.39150  0.10850  Biso   1.000  C
  C58      1.0000 0.05500  0.44500  0.05500  Biso   1.000  C
  C59      1.0000 0.39150  0.10850  0.39150  Biso   1.000  C
  C60      1.0000 0.44500  0.05500  0.44500  Biso   1.000  C
  C61      1.0000 0.10850  0.10850  0.39150  Biso   1.000  C
  C62      1.0000 0.05500  0.05500  0.44500  Biso   1.000  C
  C63      1.0000 0.39150  0.39150  0.10850  Biso   1.000  C
  C64      1.0000 0.44500  0.44500  0.05500  Biso   1.000  C
  C65      1.0000 0.10850  0.39150  0.39150  Biso   1.000  C
  C66      1.0000 0.05500  0.44500  0.44500  Biso   1.000  C
  C67      1.0000 0.39150  0.10850  0.10850  Biso   1.000  C
  C68      1.0000 0.44500  0.05500  0.05500  Biso   1.000  C
  C69      1.0000 0.60850  0.89150  0.89150  Biso   1.000  C
  C70      1.0000 0.55500  0.94500  0.94500  Biso   1.000  C
  C71      1.0000 0.89150  0.60850  0.60850  Biso   1.000  C
  C72      1.0000 0.94500  0.55500  0.55500  Biso   1.000  C
  C73      1.0000 0.89150  0.89150  0.60850  Biso   1.000  C
  C74      1.0000 0.94500  0.94500  0.55500  Biso   1.000  C
  C75      1.0000 0.60850  0.60850  0.89150  Biso   1.000  C
  C76      1.0000 0.55500  0.55500  0.94500  Biso   1.000  C
  C77      1.0000 0.60850  0.89150  0.60850  Biso   1.000  C
  C78      1.0000 0.55500  0.94500  0.55500  Biso   1.000  C
  C79      1.0000 0.89150  0.60850  0.89150  Biso   1.000  C
  C80      1.0000 0.94500  0.55500  0.94500  Biso   1.000  C
  C81      1.0000 0.25000  0.25000  0.25000  Biso   1.000  C
  C82      1.0000 0.75000  0.75000  0.75000  Biso   1.000  C
  C83      1.0000 0.13390  0.42730  0.13390  Biso   1.000  C
  C84      1.0000 0.42730  0.13390  0.30490  Biso   1.000  C
  C85      1.0000 0.13390  0.30490  0.13390  Biso   1.000  C
  C86      1.0000 0.30490  0.13390  0.42730  Biso   1.000  C
  C87      1.0000 0.13390  0.13390  0.30490  Biso   1.000  C
  C88      1.0000 0.42730  0.30490  0.13390  Biso   1.000  C
  C89      1.0000 0.13390  0.13390  0.42730  Biso   1.000  C
  C90      1.0000 0.30490  0.42730  0.13390  Biso   1.000  C
  C91      1.0000 0.13390  0.30490  0.42730  Biso   1.000  C
  C92      1.0000 0.42730  0.13390  0.13390  Biso   1.000  C
  C93      1.0000 0.13390  0.42730  0.30490  Biso   1.000  C
  C94      1.0000 0.30490  0.13390  0.13390  Biso   1.000  C
  C95      1.0000 0.57270  0.86610  0.86610  Biso   1.000  C
  C96      1.0000 0.86610  0.57270  0.69510  Biso   1.000  C
  C97      1.0000 0.69510  0.86610  0.86610  Biso   1.000  C
  C98      1.0000 0.86610  0.69510  0.57270  Biso   1.000  C
  C99      1.0000 0.86610  0.86610  0.69510  Biso   1.000  C
  C100     1.0000 0.69510  0.57270  0.86610  Biso   1.000  C
  C101     1.0000 0.86610  0.86610  0.57270  Biso   1.000  C
  C102     1.0000 0.57270  0.69510  0.86610  Biso   1.000  C
  C103     1.0000 0.69510  0.86610  0.57270  Biso   1.000  C
  C104     1.0000 0.86610  0.57270  0.86610  Biso   1.000  C
  C105     1.0000 0.57270  0.86610  0.69510  Biso   1.000  C
  C106     1.0000 0.86610  0.69510  0.86610  Biso   1.000  C
  O1       1.0000 0.07084  0.59529  0.58974  Biso   1.000  O
  O2       1.0000 0.48686  0.17927  0.00572  Biso   1.000  O
  O3       1.0000 0.48686  0.00593  0.00572  Biso   1.000  O
  O4       1.0000 0.07084  0.42195  0.58974  Biso   1.000  O
  O5       1.0000 0.07059  0.59549  0.41625  Biso   1.000  O
  O6       1.0000 0.89716  0.59536  0.58995  Biso   1.000  O
  O7       1.0000 0.48712  0.00573  0.17921  Biso   1.000  O
  O8       1.0000 0.66054  0.00586  0.00551  Biso   1.000  O
  O9       1.0000 0.23738  0.23424  0.44916  Biso   1.000  O
  O10      1.0000 0.22619  0.45496  0.23648  Biso   1.000  O
  O11      1.0000 0.93827  0.23621  0.74993  Biso   1.000  O
  O12      1.0000 0.71257  0.45612  0.75520  Biso   1.000  O
  O13      1.0000 0.23908  0.45553  0.74814  Biso   1.000  O
  O14      1.0000 0.32033  0.84416  0.14630  Biso   1.000  O
  O15      1.0000 0.33151  0.84107  0.35898  Biso   1.000  O
  O16      1.0000 0.61944  0.84775  0.84553  Biso   1.000  O
  O17      1.0000 0.84514  0.84726  0.84026  Biso   1.000  O
  O18      1.0000 0.31862  0.36610  0.84732  Biso   1.000  O
  O19      1.0000 0.32033  0.36698  0.14630  Biso   1.000  O
  O20      1.0000 0.33151  0.14626  0.35898  Biso   1.000  O
  O21      1.0000 0.61944  0.36501  0.84553  Biso   1.000  O
  O22      1.0000 0.84514  0.14510  0.84026  Biso   1.000  O
  O23      1.0000 0.31863  0.14569  0.84732  Biso   1.000  O
  O24      1.0000 0.23738  0.75706  0.44916  Biso   1.000  O
  O25      1.0000 0.22619  0.76015  0.23648  Biso   1.000  O
  O26      1.0000 0.93827  0.75346  0.74993  Biso   1.000  O
  O27      1.0000 0.71257  0.75396  0.75520  Biso   1.000  O
  O28      1.0000 0.23908  0.23512  0.74814  Biso   1.000  O
  O29      1.0000 0.71643  0.75577  0.44985  Biso   1.000  O
  O30      1.0000 0.92826  0.75846  0.23260  Biso   1.000  O
  O31      1.0000 0.84128  0.84545  0.14560  Biso   1.000  O
  O32      1.0000 0.62944  0.84276  0.36285  Biso   1.000  O
  O33      1.0000 0.16536  0.41230  0.41068  Biso   1.000  O
  O34      1.0000 0.22361  0.35564  0.35062  Biso   1.000  O
  O35      1.0000 0.25616  0.26058  0.38721  Biso   1.000  O
  O36      1.0000 0.24707  0.39312  0.26193  Biso   1.000  O
  O37      1.0000 0.88961  0.41348  0.68570  Biso   1.000  O
  O38      1.0000 0.83285  0.35810  0.74227  Biso   1.000  O
  O39      1.0000 0.87654  0.26176  0.76733  Biso   1.000  O
  O40      1.0000 0.74001  0.39449  0.77071  Biso   1.000  O
  O41      1.0000 0.25528  0.39379  0.76753  Biso   1.000  O
  O42      1.0000 0.39234  0.91176  0.18478  Biso   1.000  O
  O43      1.0000 0.33409  0.85330  0.24483  Biso   1.000  O
  O44      1.0000 0.30154  0.82736  0.20824  Biso   1.000  O
  O45      1.0000 0.31064  0.82556  0.33352  Biso   1.000  O
  O46      1.0000 0.66809  0.91217  0.90976  Biso   1.000  O
  O47      1.0000 0.72485  0.85660  0.85318  Biso   1.000  O
  O48      1.0000 0.68117  0.82897  0.82813  Biso   1.000  O
  O49      1.0000 0.81770  0.82857  0.82475  Biso   1.000  O
  O50      1.0000 0.30242  0.33996  0.82793  Biso   1.000  O
  O51      1.0000 0.39234  0.18892  0.18478  Biso   1.000  O
  O52      1.0000 0.33409  0.24558  0.24483  Biso   1.000  O
  O53      1.0000 0.30154  0.34063  0.20824  Biso   1.000  O
  O54      1.0000 0.31064  0.20810  0.33352  Biso   1.000  O
  O55      1.0000 0.66809  0.18774  0.90976  Biso   1.000  O
  O56      1.0000 0.72485  0.24312  0.85318  Biso   1.000  O
  O57      1.0000 0.68117  0.33946  0.82813  Biso   1.000  O
  O58      1.0000 0.81770  0.20673  0.82475  Biso   1.000  O
  O59      1.0000 0.30242  0.20743  0.82793  Biso   1.000  O
  O60      1.0000 0.16536  0.68946  0.41068  Biso   1.000  O
  O61      1.0000 0.22361  0.74792  0.35062  Biso   1.000  O
  O62      1.0000 0.25616  0.77386  0.38721  Biso   1.000  O
  O63      1.0000 0.24707  0.77566  0.26193  Biso   1.000  O
  O64      1.0000 0.88961  0.68905  0.68570  Biso   1.000  O
  O65      1.0000 0.83285  0.74462  0.74227  Biso   1.000  O
  O66      1.0000 0.87653  0.77225  0.76733  Biso   1.000  O
  O67      1.0000 0.74001  0.77265  0.77071  Biso   1.000  O
  O68      1.0000 0.25529  0.26126  0.76753  Biso   1.000  O
  O69      1.0000 0.89139  0.69115  0.40412  Biso   1.000  O
  O70      1.0000 0.83254  0.74692  0.35142  Biso   1.000  O
  O71      1.0000 0.74287  0.77337  0.38821  Biso   1.000  O
  O72      1.0000 0.86633  0.77576  0.25995  Biso   1.000  O
  O73      1.0000 0.16458  0.41636  0.68053  Biso   1.000  O
  O74      1.0000 0.22264  0.35651  0.74217  Biso   1.000  O
  O75      1.0000 0.66632  0.91007  0.19134  Biso   1.000  O
  O76      1.0000 0.72517  0.85429  0.24404  Biso   1.000  O
  O77      1.0000 0.81484  0.82785  0.20725  Biso   1.000  O
  O78      1.0000 0.69137  0.82546  0.33551  Biso   1.000  O
  O79      1.0000 0.39313  0.18486  0.91493  Biso   1.000  O
  O80      1.0000 0.33507  0.24471  0.85328  Biso   1.000  O
  O81      1.0000 0.14339  0.49750  0.36743  Biso   1.000  O
  O82      1.0000 0.14578  0.37203  0.49291  Biso   1.000  O
  O83      1.0000 0.84895  0.49858  0.66054  Biso   1.000  O
  O84      1.0000 0.97341  0.37352  0.66333  Biso   1.000  O
  O85      1.0000 0.14370  0.49887  0.66104  Biso   1.000  O
  O86      1.0000 0.41432  0.93174  0.22803  Biso   1.000  O
  O87      1.0000 0.41192  0.93413  0.10255  Biso   1.000  O
  O88      1.0000 0.70875  0.93145  0.93491  Biso   1.000  O
  O89      1.0000 0.58429  0.93364  0.93213  Biso   1.000  O
  O90      1.0000 0.41400  0.22701  0.93442  Biso   1.000  O
  O91      1.0000 0.41432  0.10372  0.22803  Biso   1.000  O
  O92      1.0000 0.41192  0.22919  0.10255  Biso   1.000  O
  O93      1.0000 0.70875  0.10264  0.93491  Biso   1.000  O
  O94      1.0000 0.58429  0.22770  0.93213  Biso   1.000  O
  O95      1.0000 0.41400  0.10234  0.93442  Biso   1.000  O
  O96      1.0000 0.14339  0.66948  0.36743  Biso   1.000  O
  O97      1.0000 0.14578  0.66709  0.49291  Biso   1.000  O
  O98      1.0000 0.84895  0.66976  0.66054  Biso   1.000  O
  O99      1.0000 0.97342  0.66758  0.66333  Biso   1.000  O
  O100     1.0000 0.14370  0.37421  0.66104  Biso   1.000  O
  O101     1.0000 0.02739  0.55217  0.54610  Biso   1.000  O
  O102     1.0000 0.97320  0.66809  0.36842  Biso   1.000  O
  O103     1.0000 0.85024  0.66967  0.48823  Biso   1.000  O
  O104     1.0000 0.53032  0.04905  0.04936  Biso   1.000  O
  O105     1.0000 0.58450  0.93313  0.22703  Biso   1.000  O
  O106     1.0000 0.70747  0.93154  0.10722  Biso   1.000  O
