data_image0
_cell_length_a       18.1507
_cell_length_b       18.1507
_cell_length_c       18.1507
_cell_angle_alpha    60
_cell_angle_beta     60
_cell_angle_gamma    60

_symmetry_space_group_name_H-M    "P 1"
_symmetry_int_tables_number       1

loop_
  _symmetry_equiv_pos_as_xyz
  'x, y, z'

loop_
  _atom_site_label
  _atom_site_occupancy
  _atom_site_fract_x
  _atom_site_fract_y
  _atom_site_fract_z
  _atom_site_thermal_displace_type
  _atom_site_B_iso_or_equiv
  _atom_site_type_symbol
  C1       1.0000 0.29350  0.29350  0.29350  Biso   1.000  C
  C2       1.0000 0.29350  0.29350  0.11950  Biso   1.000  C
  C3       1.0000 0.29350  0.11950  0.29350  Biso   1.000  C
  C4       1.0000 0.11950  0.29350  0.29350  Biso   1.000  C
  C5       1.0000 0.70650  0.70650  0.70650  Biso   1.000  C
  C6       1.0000 0.70650  0.70650  0.88050  Biso   1.000  C
  C7       1.0000 0.88050  0.70650  0.70650  Biso   1.000  C
  C8       1.0000 0.70650  0.88050  0.70650  Biso   1.000  C
  C9       1.0000 0.45480  0.45480  0.15700  Biso   1.000  C
  C10      1.0000 0.45480  0.45480  0.93340  Biso   1.000  C
  C11      1.0000 0.15700  0.93340  0.45480  Biso   1.000  C
  C12      1.0000 0.93340  0.15700  0.45480  Biso   1.000  C
  C13      1.0000 0.45480  0.15700  0.93340  Biso   1.000  C
  C14      1.0000 0.45480  0.93340  0.15700  Biso   1.000  C
  C15      1.0000 0.15700  0.45480  0.45480  Biso   1.000  C
  C16      1.0000 0.93340  0.45480  0.45480  Biso   1.000  C
  C17      1.0000 0.45480  0.93340  0.45480  Biso   1.000  C
  C18      1.0000 0.45480  0.15700  0.45480  Biso   1.000  C
  C19      1.0000 0.15700  0.45480  0.93340  Biso   1.000  C
  C20      1.0000 0.93340  0.45480  0.15700  Biso   1.000  C
  C21      1.0000 0.54520  0.54520  0.84300  Biso   1.000  C
  C22      1.0000 0.54520  0.54520  0.06660  Biso   1.000  C
  C23      1.0000 0.06660  0.84300  0.54520  Biso   1.000  C
  C24      1.0000 0.84300  0.06660  0.54520  Biso   1.000  C
  C25      1.0000 0.84300  0.54520  0.06660  Biso   1.000  C
  C26      1.0000 0.06660  0.54520  0.84300  Biso   1.000  C
  C27      1.0000 0.54520  0.84300  0.54520  Biso   1.000  C
  C28      1.0000 0.54520  0.06660  0.54520  Biso   1.000  C
  C29      1.0000 0.06660  0.54520  0.54520  Biso   1.000  C
  C30      1.0000 0.84300  0.54520  0.54520  Biso   1.000  C
  C31      1.0000 0.54520  0.84300  0.06660  Biso   1.000  C
  C32      1.0000 0.54520  0.06660  0.84300  Biso   1.000  C
  C33      1.0000 0.47370  0.47370  0.09250  Biso   1.000  C
  C34      1.0000 0.47370  0.47370  0.96010  Biso   1.000  C
  C35      1.0000 0.09250  0.96010  0.47370  Biso   1.000  C
  C36      1.0000 0.96010  0.09250  0.47370  Biso   1.000  C
  C37      1.0000 0.47370  0.09250  0.96010  Biso   1.000  C
  C38      1.0000 0.47370  0.96010  0.09250  Biso   1.000  C
  C39      1.0000 0.09250  0.47370  0.47370  Biso   1.000  C
  C40      1.0000 0.96010  0.47370  0.47370  Biso   1.000  C
  C41      1.0000 0.47370  0.96010  0.47370  Biso   1.000  C
  C42      1.0000 0.47370  0.09250  0.47370  Biso   1.000  C
  C43      1.0000 0.09250  0.47370  0.96010  Biso   1.000  C
  C44      1.0000 0.96010  0.47370  0.09250  Biso   1.000  C
  C45      1.0000 0.52630  0.52630  0.90750  Biso   1.000  C
  C46      1.0000 0.52630  0.52630  0.03990  Biso   1.000  C
  C47      1.0000 0.03990  0.90750  0.52630  Biso   1.000  C
  C48      1.0000 0.90750  0.03990  0.52630  Biso   1.000  C
  C49      1.0000 0.90750  0.52630  0.03990  Biso   1.000  C
  C50      1.0000 0.03990  0.52630  0.90750  Biso   1.000  C
  C51      1.0000 0.52630  0.90750  0.52630  Biso   1.000  C
  C52      1.0000 0.52630  0.03990  0.52630  Biso   1.000  C
  C53      1.0000 0.03990  0.52630  0.52630  Biso   1.000  C
  C54      1.0000 0.90750  0.52630  0.52630  Biso   1.000  C
  C55      1.0000 0.52630  0.90750  0.03990  Biso   1.000  C
  C56      1.0000 0.52630  0.03990  0.90750  Biso   1.000  C
  C57      1.0000 0.38950  0.38950  0.11050  Biso   1.000  C
  C58      1.0000 0.44620  0.44620  0.05380  Biso   1.000  C
  C59      1.0000 0.11050  0.11050  0.38950  Biso   1.000  C
  C60      1.0000 0.05380  0.05380  0.44620  Biso   1.000  C
  C61      1.0000 0.38950  0.11050  0.11050  Biso   1.000  C
  C62      1.0000 0.44620  0.05380  0.05380  Biso   1.000  C
  C63      1.0000 0.11050  0.38950  0.38950  Biso   1.000  C
  C64      1.0000 0.05380  0.44620  0.44620  Biso   1.000  C
  C65      1.0000 0.38950  0.11050  0.38950  Biso   1.000  C
  C66      1.0000 0.44620  0.05380  0.44620  Biso   1.000  C
  C67      1.0000 0.11050  0.38950  0.11050  Biso   1.000  C
  C68      1.0000 0.05380  0.44620  0.05380  Biso   1.000  C
  C69      1.0000 0.61050  0.61050  0.88950  Biso   1.000  C
  C70      1.0000 0.55380  0.55380  0.94620  Biso   1.000  C
  C71      1.0000 0.88950  0.88950  0.61050  Biso   1.000  C
  C72      1.0000 0.94620  0.94620  0.55380  Biso   1.000  C
  C73      1.0000 0.88950  0.61050  0.88950  Biso   1.000  C
  C74      1.0000 0.94620  0.55380  0.94620  Biso   1.000  C
  C75      1.0000 0.61050  0.88950  0.61050  Biso   1.000  C
  C76      1.0000 0.55380  0.94620  0.55380  Biso   1.000  C
  C77      1.0000 0.88950  0.61050  0.61050  Biso   1.000  C
  C78      1.0000 0.94620  0.55380  0.55380  Biso   1.000  C
  C79      1.0000 0.61050  0.88950  0.88950  Biso   1.000  C
  C80      1.0000 0.55380  0.94620  0.94620  Biso   1.000  C
  C81      1.0000 0.25000  0.25000  0.25000  Biso   1.000  C
  C82      1.0000 0.75000  0.75000  0.75000  Biso   1.000  C
  C83      1.0000 0.36610  0.36610  0.19750  Biso   1.000  C
  C84      1.0000 0.36610  0.36610  0.07030  Biso   1.000  C
  C85      1.0000 0.19750  0.07030  0.36610  Biso   1.000  C
  C86      1.0000 0.07030  0.19750  0.36610  Biso   1.000  C
  C87      1.0000 0.36610  0.19750  0.07030  Biso   1.000  C
  C88      1.0000 0.36610  0.07030  0.19750  Biso   1.000  C
  C89      1.0000 0.19750  0.36610  0.36610  Biso   1.000  C
  C90      1.0000 0.07030  0.36610  0.36610  Biso   1.000  C
  C91      1.0000 0.36610  0.07030  0.36610  Biso   1.000  C
  C92      1.0000 0.36610  0.19750  0.36610  Biso   1.000  C
  C93      1.0000 0.19750  0.36610  0.07030  Biso   1.000  C
  C94      1.0000 0.07030  0.36610  0.19750  Biso   1.000  C
  C95      1.0000 0.63390  0.63390  0.80250  Biso   1.000  C
  C96      1.0000 0.63390  0.63390  0.92970  Biso   1.000  C
  C97      1.0000 0.92970  0.80250  0.63390  Biso   1.000  C
  C98      1.0000 0.80250  0.92970  0.63390  Biso   1.000  C
  C99      1.0000 0.80250  0.63390  0.92970  Biso   1.000  C
  C100     1.0000 0.92970  0.63390  0.80250  Biso   1.000  C
  C101     1.0000 0.63390  0.80250  0.63390  Biso   1.000  C
  C102     1.0000 0.63390  0.92970  0.63390  Biso   1.000  C
  C103     1.0000 0.92970  0.63390  0.63390  Biso   1.000  C
  C104     1.0000 0.80250  0.63390  0.63390  Biso   1.000  C
  C105     1.0000 0.63390  0.80250  0.92970  Biso   1.000  C
  C106     1.0000 0.63390  0.92970  0.80250  Biso   1.000  C
  O1       1.0000 0.89951  0.75660  0.43709  Biso   1.000  O
  O2       1.0000 0.07542  0.75660  0.26118  Biso   1.000  O
  O3       1.0000 0.89951  0.75660  0.26118  Biso   1.000  O
  O4       1.0000 0.89951  0.93251  0.26118  Biso   1.000  O
  O5       1.0000 0.50158  0.33986  0.66852  Biso   1.000  O
  O6       1.0000 0.32567  0.33986  0.84443  Biso   1.000  O
  O7       1.0000 0.50158  0.16395  0.84443  Biso   1.000  O
  O8       1.0000 0.50158  0.33986  0.84443  Biso   1.000  O
  O9       1.0000 0.05222  0.59264  0.61230  Biso   1.000  O
  O10      1.0000 0.26004  0.59264  0.40448  Biso   1.000  O
  O11      1.0000 0.74496  0.89991  0.09722  Biso   1.000  O
  O12      1.0000 0.74496  0.10772  0.09722  Biso   1.000  O
  O13      1.0000 0.74496  0.10772  0.40448  Biso   1.000  O
  O14      1.0000 0.74496  0.89991  0.61230  Biso   1.000  O
  O15      1.0000 0.05222  0.59264  0.09722  Biso   1.000  O
  O16      1.0000 0.26004  0.59264  0.09722  Biso   1.000  O
  O17      1.0000 0.26004  0.89991  0.09722  Biso   1.000  O
  O18      1.0000 0.05222  0.10772  0.09722  Biso   1.000  O
  O19      1.0000 0.74496  0.59264  0.40448  Biso   1.000  O
  O20      1.0000 0.74496  0.59264  0.61230  Biso   1.000  O
  O21      1.0000 0.34887  0.50382  0.49331  Biso   1.000  O
  O22      1.0000 0.14105  0.50382  0.70113  Biso   1.000  O
  O23      1.0000 0.65613  0.98874  0.00839  Biso   1.000  O
  O24      1.0000 0.65613  0.19655  0.00839  Biso   1.000  O
  O25      1.0000 0.65613  0.50382  0.70113  Biso   1.000  O
  O26      1.0000 0.65613  0.50382  0.49331  Biso   1.000  O
  O27      1.0000 0.34887  0.98874  0.00839  Biso   1.000  O
  O28      1.0000 0.14105  0.19655  0.00839  Biso   1.000  O
  O29      1.0000 0.14105  0.50382  0.00839  Biso   1.000  O
  O30      1.0000 0.34887  0.50382  0.00839  Biso   1.000  O
  O31      1.0000 0.65613  0.98874  0.70113  Biso   1.000  O
  O32      1.0000 0.65613  0.19655  0.49331  Biso   1.000  O
  O33      1.0000 0.11481  0.57488  0.58525  Biso   1.000  O
  O34      1.0000 0.23299  0.57488  0.46707  Biso   1.000  O
  O35      1.0000 0.72719  0.96249  0.07945  Biso   1.000  O
  O36      1.0000 0.72719  0.08067  0.07945  Biso   1.000  O
  O37      1.0000 0.72719  0.08067  0.46707  Biso   1.000  O
  O38      1.0000 0.72719  0.96249  0.58525  Biso   1.000  O
  O39      1.0000 0.11481  0.57488  0.07945  Biso   1.000  O
  O40      1.0000 0.23299  0.57488  0.07945  Biso   1.000  O
  O41      1.0000 0.23299  0.96249  0.07945  Biso   1.000  O
  O42      1.0000 0.11481  0.08067  0.07945  Biso   1.000  O
  O43      1.0000 0.72719  0.57488  0.46707  Biso   1.000  O
  O44      1.0000 0.72719  0.57488  0.58525  Biso   1.000  O
  O45      1.0000 0.28628  0.52158  0.52036  Biso   1.000  O
  O46      1.0000 0.16810  0.52158  0.63854  Biso   1.000  O
  O47      1.0000 0.67390  0.01579  0.02616  Biso   1.000  O
  O48      1.0000 0.67390  0.13397  0.02616  Biso   1.000  O
  O49      1.0000 0.67390  0.52158  0.63854  Biso   1.000  O
  O50      1.0000 0.67390  0.52158  0.52036  Biso   1.000  O
  O51      1.0000 0.28628  0.01579  0.02616  Biso   1.000  O
  O52      1.0000 0.16810  0.13397  0.02616  Biso   1.000  O
  O53      1.0000 0.16810  0.52158  0.02616  Biso   1.000  O
  O54      1.0000 0.28628  0.52158  0.02616  Biso   1.000  O
  O55      1.0000 0.67390  0.01579  0.63854  Biso   1.000  O
  O56      1.0000 0.67390  0.13397  0.52036  Biso   1.000  O
  O57      1.0000 0.08339  0.66068  0.44506  Biso   1.000  O
  O58      1.0000 0.14164  0.60243  0.50330  Biso   1.000  O
  O59      1.0000 0.80358  0.94049  0.16525  Biso   1.000  O
  O60      1.0000 0.74534  0.99873  0.10701  Biso   1.000  O
  O61      1.0000 0.80358  0.94049  0.44506  Biso   1.000  O
  O62      1.0000 0.74534  0.99873  0.50330  Biso   1.000  O
  O63      1.0000 0.08339  0.66068  0.16525  Biso   1.000  O
  O64      1.0000 0.14164  0.60243  0.10701  Biso   1.000  O
  O65      1.0000 0.08339  0.94049  0.16525  Biso   1.000  O
  O66      1.0000 0.14164  0.99873  0.10701  Biso   1.000  O
  O67      1.0000 0.80358  0.66068  0.44506  Biso   1.000  O
  O68      1.0000 0.74534  0.60243  0.50330  Biso   1.000  O
  O69      1.0000 0.31770  0.43578  0.66055  Biso   1.000  O
  O70      1.0000 0.25946  0.49402  0.60230  Biso   1.000  O
  O71      1.0000 0.59751  0.15597  0.94036  Biso   1.000  O
  O72      1.0000 0.65575  0.09773  0.99860  Biso   1.000  O
  O73      1.0000 0.59751  0.43578  0.66055  Biso   1.000  O
  O74      1.0000 0.65575  0.49402  0.60230  Biso   1.000  O
  O75      1.0000 0.31770  0.15597  0.94036  Biso   1.000  O
  O76      1.0000 0.25946  0.09773  0.99860  Biso   1.000  O
  O77      1.0000 0.31770  0.43578  0.94036  Biso   1.000  O
  O78      1.0000 0.25946  0.49402  0.99860  Biso   1.000  O
  O79      1.0000 0.59751  0.15597  0.66055  Biso   1.000  O
  O80      1.0000 0.65575  0.09773  0.60230  Biso   1.000  O
  O81      1.0000 0.94349  0.80058  0.30516  Biso   1.000  O
  O82      1.0000 0.45760  0.29588  0.80045  Biso   1.000  O
  O83      1.0000 0.99934  0.68344  0.48359  Biso   1.000  O
  O84      1.0000 0.12192  0.68344  0.36101  Biso   1.000  O
  O85      1.0000 0.82635  0.85643  0.18801  Biso   1.000  O
  O86      1.0000 0.82635  0.97902  0.18801  Biso   1.000  O
  O87      1.0000 0.82635  0.97902  0.36101  Biso   1.000  O
  O88      1.0000 0.82635  0.85643  0.48359  Biso   1.000  O
  O89      1.0000 0.99934  0.68344  0.18801  Biso   1.000  O
  O90      1.0000 0.12192  0.68344  0.18801  Biso   1.000  O
  O91      1.0000 0.12192  0.85643  0.18801  Biso   1.000  O
  O92      1.0000 0.99934  0.97902  0.18801  Biso   1.000  O
  O93      1.0000 0.82635  0.68344  0.36101  Biso   1.000  O
  O94      1.0000 0.82635  0.68344  0.48359  Biso   1.000  O
  O95      1.0000 0.40175  0.41302  0.62202  Biso   1.000  O
  O96      1.0000 0.27917  0.41302  0.74460  Biso   1.000  O
  O97      1.0000 0.57475  0.11744  0.91759  Biso   1.000  O
  O98      1.0000 0.57475  0.24003  0.91759  Biso   1.000  O
  O99      1.0000 0.57475  0.41302  0.74460  Biso   1.000  O
  O100     1.0000 0.57475  0.41302  0.62202  Biso   1.000  O
  O101     1.0000 0.40175  0.11744  0.91759  Biso   1.000  O
  O102     1.0000 0.27917  0.24003  0.91759  Biso   1.000  O
  O103     1.0000 0.27917  0.41302  0.91759  Biso   1.000  O
  O104     1.0000 0.40175  0.41302  0.91759  Biso   1.000  O
  O105     1.0000 0.57475  0.11744  0.74460  Biso   1.000  O
  O106     1.0000 0.57475  0.24003  0.62202  Biso   1.000  O
