data_image0
_cell_length_a       18.1507
_cell_length_b       18.1507
_cell_length_c       18.1507
_cell_angle_alpha    60
_cell_angle_beta     60
_cell_angle_gamma    60

_symmetry_space_group_name_H-M    "P 1"
_symmetry_int_tables_number       1

loop_
  _symmetry_equiv_pos_as_xyz
  'x, y, z'

loop_
  _atom_site_label
  _atom_site_occupancy
  _atom_site_fract_x
  _atom_site_fract_y
  _atom_site_fract_z
  _atom_site_thermal_displace_type
  _atom_site_B_iso_or_equiv
  _atom_site_type_symbol
  C1       1.0000 0.29350  0.29350  0.29350  Biso   1.000  C
  C2       1.0000 0.29350  0.29350  0.11950  Biso   1.000  C
  C3       1.0000 0.29350  0.11950  0.29350  Biso   1.000  C
  C4       1.0000 0.11950  0.29350  0.29350  Biso   1.000  C
  C5       1.0000 0.70650  0.70650  0.70650  Biso   1.000  C
  C6       1.0000 0.70650  0.70650  0.88050  Biso   1.000  C
  C7       1.0000 0.88050  0.70650  0.70650  Biso   1.000  C
  C8       1.0000 0.70650  0.88050  0.70650  Biso   1.000  C
  C9       1.0000 0.45480  0.45480  0.15700  Biso   1.000  C
  C10      1.0000 0.45480  0.45480  0.93340  Biso   1.000  C
  C11      1.0000 0.15700  0.93340  0.45480  Biso   1.000  C
  C12      1.0000 0.93340  0.15700  0.45480  Biso   1.000  C
  C13      1.0000 0.45480  0.15700  0.93340  Biso   1.000  C
  C14      1.0000 0.45480  0.93340  0.15700  Biso   1.000  C
  C15      1.0000 0.15700  0.45480  0.45480  Biso   1.000  C
  C16      1.0000 0.93340  0.45480  0.45480  Biso   1.000  C
  C17      1.0000 0.45480  0.93340  0.45480  Biso   1.000  C
  C18      1.0000 0.45480  0.15700  0.45480  Biso   1.000  C
  C19      1.0000 0.15700  0.45480  0.93340  Biso   1.000  C
  C20      1.0000 0.93340  0.45480  0.15700  Biso   1.000  C
  C21      1.0000 0.54520  0.54520  0.84300  Biso   1.000  C
  C22      1.0000 0.54520  0.54520  0.06660  Biso   1.000  C
  C23      1.0000 0.06660  0.84300  0.54520  Biso   1.000  C
  C24      1.0000 0.84300  0.06660  0.54520  Biso   1.000  C
  C25      1.0000 0.84300  0.54520  0.06660  Biso   1.000  C
  C26      1.0000 0.06660  0.54520  0.84300  Biso   1.000  C
  C27      1.0000 0.54520  0.84300  0.54520  Biso   1.000  C
  C28      1.0000 0.54520  0.06660  0.54520  Biso   1.000  C
  C29      1.0000 0.06660  0.54520  0.54520  Biso   1.000  C
  C30      1.0000 0.84300  0.54520  0.54520  Biso   1.000  C
  C31      1.0000 0.54520  0.84300  0.06660  Biso   1.000  C
  C32      1.0000 0.54520  0.06660  0.84300  Biso   1.000  C
  C33      1.0000 0.47370  0.47370  0.09250  Biso   1.000  C
  C34      1.0000 0.47370  0.47370  0.96010  Biso   1.000  C
  C35      1.0000 0.09250  0.96010  0.47370  Biso   1.000  C
  C36      1.0000 0.96010  0.09250  0.47370  Biso   1.000  C
  C37      1.0000 0.47370  0.09250  0.96010  Biso   1.000  C
  C38      1.0000 0.47370  0.96010  0.09250  Biso   1.000  C
  C39      1.0000 0.09250  0.47370  0.47370  Biso   1.000  C
  C40      1.0000 0.96010  0.47370  0.47370  Biso   1.000  C
  C41      1.0000 0.47370  0.96010  0.47370  Biso   1.000  C
  C42      1.0000 0.47370  0.09250  0.47370  Biso   1.000  C
  C43      1.0000 0.09250  0.47370  0.96010  Biso   1.000  C
  C44      1.0000 0.96010  0.47370  0.09250  Biso   1.000  C
  C45      1.0000 0.52630  0.52630  0.90750  Biso   1.000  C
  C46      1.0000 0.52630  0.52630  0.03990  Biso   1.000  C
  C47      1.0000 0.03990  0.90750  0.52630  Biso   1.000  C
  C48      1.0000 0.90750  0.03990  0.52630  Biso   1.000  C
  C49      1.0000 0.90750  0.52630  0.03990  Biso   1.000  C
  C50      1.0000 0.03990  0.52630  0.90750  Biso   1.000  C
  C51      1.0000 0.52630  0.90750  0.52630  Biso   1.000  C
  C52      1.0000 0.52630  0.03990  0.52630  Biso   1.000  C
  C53      1.0000 0.03990  0.52630  0.52630  Biso   1.000  C
  C54      1.0000 0.90750  0.52630  0.52630  Biso   1.000  C
  C55      1.0000 0.52630  0.90750  0.03990  Biso   1.000  C
  C56      1.0000 0.52630  0.03990  0.90750  Biso   1.000  C
  C57      1.0000 0.38950  0.38950  0.11050  Biso   1.000  C
  C58      1.0000 0.44620  0.44620  0.05380  Biso   1.000  C
  C59      1.0000 0.11050  0.11050  0.38950  Biso   1.000  C
  C60      1.0000 0.05380  0.05380  0.44620  Biso   1.000  C
  C61      1.0000 0.38950  0.11050  0.11050  Biso   1.000  C
  C62      1.0000 0.44620  0.05380  0.05380  Biso   1.000  C
  C63      1.0000 0.11050  0.38950  0.38950  Biso   1.000  C
  C64      1.0000 0.05380  0.44620  0.44620  Biso   1.000  C
  C65      1.0000 0.38950  0.11050  0.38950  Biso   1.000  C
  C66      1.0000 0.44620  0.05380  0.44620  Biso   1.000  C
  C67      1.0000 0.11050  0.38950  0.11050  Biso   1.000  C
  C68      1.0000 0.05380  0.44620  0.05380  Biso   1.000  C
  C69      1.0000 0.61050  0.61050  0.88950  Biso   1.000  C
  C70      1.0000 0.55380  0.55380  0.94620  Biso   1.000  C
  C71      1.0000 0.88950  0.88950  0.61050  Biso   1.000  C
  C72      1.0000 0.94620  0.94620  0.55380  Biso   1.000  C
  C73      1.0000 0.88950  0.61050  0.88950  Biso   1.000  C
  C74      1.0000 0.94620  0.55380  0.94620  Biso   1.000  C
  C75      1.0000 0.61050  0.88950  0.61050  Biso   1.000  C
  C76      1.0000 0.55380  0.94620  0.55380  Biso   1.000  C
  C77      1.0000 0.88950  0.61050  0.61050  Biso   1.000  C
  C78      1.0000 0.94620  0.55380  0.55380  Biso   1.000  C
  C79      1.0000 0.61050  0.88950  0.88950  Biso   1.000  C
  C80      1.0000 0.55380  0.94620  0.94620  Biso   1.000  C
  C81      1.0000 0.25000  0.25000  0.25000  Biso   1.000  C
  C82      1.0000 0.75000  0.75000  0.75000  Biso   1.000  C
  C83      1.0000 0.36610  0.36610  0.19750  Biso   1.000  C
  C84      1.0000 0.36610  0.36610  0.07030  Biso   1.000  C
  C85      1.0000 0.19750  0.07030  0.36610  Biso   1.000  C
  C86      1.0000 0.07030  0.19750  0.36610  Biso   1.000  C
  C87      1.0000 0.36610  0.19750  0.07030  Biso   1.000  C
  C88      1.0000 0.36610  0.07030  0.19750  Biso   1.000  C
  C89      1.0000 0.19750  0.36610  0.36610  Biso   1.000  C
  C90      1.0000 0.07030  0.36610  0.36610  Biso   1.000  C
  C91      1.0000 0.36610  0.07030  0.36610  Biso   1.000  C
  C92      1.0000 0.36610  0.19750  0.36610  Biso   1.000  C
  C93      1.0000 0.19750  0.36610  0.07030  Biso   1.000  C
  C94      1.0000 0.07030  0.36610  0.19750  Biso   1.000  C
  C95      1.0000 0.63390  0.63390  0.80250  Biso   1.000  C
  C96      1.0000 0.63390  0.63390  0.92970  Biso   1.000  C
  C97      1.0000 0.92970  0.80250  0.63390  Biso   1.000  C
  C98      1.0000 0.80250  0.92970  0.63390  Biso   1.000  C
  C99      1.0000 0.80250  0.63390  0.92970  Biso   1.000  C
  C100     1.0000 0.92970  0.63390  0.80250  Biso   1.000  C
  C101     1.0000 0.63390  0.80250  0.63390  Biso   1.000  C
  C102     1.0000 0.63390  0.92970  0.63390  Biso   1.000  C
  C103     1.0000 0.92970  0.63390  0.63390  Biso   1.000  C
  C104     1.0000 0.80250  0.63390  0.63390  Biso   1.000  C
  C105     1.0000 0.63390  0.80250  0.92970  Biso   1.000  C
  C106     1.0000 0.63390  0.92970  0.80250  Biso   1.000  C
  O1       1.0000 0.28410  0.88584  0.87939  Biso   1.000  O
  O2       1.0000 0.10717  0.88584  0.05632  Biso   1.000  O
  O3       1.0000 0.10717  0.06277  0.87939  Biso   1.000  O
  O4       1.0000 0.10717  0.88584  0.87939  Biso   1.000  O
  O5       1.0000 0.54405  0.46586  0.45941  Biso   1.000  O
  O6       1.0000 0.72098  0.46586  0.28248  Biso   1.000  O
  O7       1.0000 0.72098  0.46586  0.45941  Biso   1.000  O
  O8       1.0000 0.72098  0.28893  0.45941  Biso   1.000  O
  O9       1.0000 0.47244  0.72191  0.01891  Biso   1.000  O
  O10      1.0000 0.26358  0.72191  0.22776  Biso   1.000  O
  O11      1.0000 0.96014  0.23421  0.71547  Biso   1.000  O
  O12      1.0000 0.96014  0.02536  0.71547  Biso   1.000  O
  O13      1.0000 0.96014  0.02536  0.22776  Biso   1.000  O
  O14      1.0000 0.96014  0.23421  0.01891  Biso   1.000  O
  O15      1.0000 0.47244  0.72191  0.71547  Biso   1.000  O
  O16      1.0000 0.26358  0.72191  0.71547  Biso   1.000  O
  O17      1.0000 0.26358  0.23421  0.71547  Biso   1.000  O
  O18      1.0000 0.47244  0.02536  0.71547  Biso   1.000  O
  O19      1.0000 0.96014  0.72191  0.22776  Biso   1.000  O
  O20      1.0000 0.96014  0.72191  0.01891  Biso   1.000  O
  O21      1.0000 0.35572  0.62978  0.31989  Biso   1.000  O
  O22      1.0000 0.56457  0.62978  0.11104  Biso   1.000  O
  O23      1.0000 0.86801  0.32634  0.62334  Biso   1.000  O
  O24      1.0000 0.86801  0.11749  0.62334  Biso   1.000  O
  O25      1.0000 0.86801  0.62978  0.11104  Biso   1.000  O
  O26      1.0000 0.86801  0.62978  0.31989  Biso   1.000  O
  O27      1.0000 0.35572  0.32634  0.62334  Biso   1.000  O
  O28      1.0000 0.56457  0.11749  0.62334  Biso   1.000  O
  O29      1.0000 0.56457  0.62978  0.62334  Biso   1.000  O
  O30      1.0000 0.35572  0.62978  0.62334  Biso   1.000  O
  O31      1.0000 0.86801  0.32634  0.11104  Biso   1.000  O
  O32      1.0000 0.86801  0.11749  0.31989  Biso   1.000  O
  O33      1.0000 0.44481  0.70275  0.08487  Biso   1.000  O
  O34      1.0000 0.32955  0.70275  0.20013  Biso   1.000  O
  O35      1.0000 0.94097  0.20658  0.69630  Biso   1.000  O
  O36      1.0000 0.94097  0.09132  0.69630  Biso   1.000  O
  O37      1.0000 0.94097  0.09132  0.20013  Biso   1.000  O
  O38      1.0000 0.94097  0.20658  0.08487  Biso   1.000  O
  O39      1.0000 0.44481  0.70275  0.69630  Biso   1.000  O
  O40      1.0000 0.32955  0.70275  0.69630  Biso   1.000  O
  O41      1.0000 0.32955  0.20658  0.69630  Biso   1.000  O
  O42      1.0000 0.44481  0.09132  0.69630  Biso   1.000  O
  O43      1.0000 0.94097  0.70275  0.20013  Biso   1.000  O
  O44      1.0000 0.94097  0.70275  0.08487  Biso   1.000  O
  O45      1.0000 0.38334  0.64895  0.25393  Biso   1.000  O
  O46      1.0000 0.49860  0.64895  0.13867  Biso   1.000  O
  O47      1.0000 0.88718  0.26038  0.64250  Biso   1.000  O
  O48      1.0000 0.88718  0.14512  0.64250  Biso   1.000  O
  O49      1.0000 0.88718  0.64895  0.13867  Biso   1.000  O
  O50      1.0000 0.88718  0.64895  0.25393  Biso   1.000  O
  O51      1.0000 0.38334  0.26038  0.64250  Biso   1.000  O
  O52      1.0000 0.49860  0.14512  0.64250  Biso   1.000  O
  O53      1.0000 0.49860  0.64895  0.64250  Biso   1.000  O
  O54      1.0000 0.38334  0.64895  0.64250  Biso   1.000  O
  O55      1.0000 0.88718  0.26038  0.13867  Biso   1.000  O
  O56      1.0000 0.88718  0.14512  0.25393  Biso   1.000  O
  O57      1.0000 0.29204  0.78944  0.06426  Biso   1.000  O
  O58      1.0000 0.35095  0.73053  0.12317  Biso   1.000  O
  O59      1.0000 0.01077  0.07071  0.78299  Biso   1.000  O
  O60      1.0000 0.95186  0.12962  0.72408  Biso   1.000  O
  O61      1.0000 0.01077  0.07071  0.06426  Biso   1.000  O
  O62      1.0000 0.95186  0.12962  0.12317  Biso   1.000  O
  O63      1.0000 0.29204  0.78944  0.78299  Biso   1.000  O
  O64      1.0000 0.35095  0.73053  0.72408  Biso   1.000  O
  O65      1.0000 0.29204  0.07071  0.78299  Biso   1.000  O
  O66      1.0000 0.35095  0.12962  0.72408  Biso   1.000  O
  O67      1.0000 0.01077  0.78944  0.06426  Biso   1.000  O
  O68      1.0000 0.95186  0.73053  0.12317  Biso   1.000  O
  O69      1.0000 0.53611  0.56226  0.27454  Biso   1.000  O
  O70      1.0000 0.47720  0.62117  0.21563  Biso   1.000  O
  O71      1.0000 0.81739  0.28099  0.55581  Biso   1.000  O
  O72      1.0000 0.87630  0.22208  0.61472  Biso   1.000  O
  O73      1.0000 0.81739  0.56226  0.27454  Biso   1.000  O
  O74      1.0000 0.87630  0.62117  0.21563  Biso   1.000  O
  O75      1.0000 0.53611  0.28099  0.55581  Biso   1.000  O
  O76      1.0000 0.47720  0.22208  0.61472  Biso   1.000  O
  O77      1.0000 0.53611  0.56226  0.55581  Biso   1.000  O
  O78      1.0000 0.47720  0.62117  0.61472  Biso   1.000  O
  O79      1.0000 0.81739  0.28099  0.27454  Biso   1.000  O
  O80      1.0000 0.87630  0.22208  0.21563  Biso   1.000  O
  O81      1.0000 0.33193  0.81198  0.97928  Biso   1.000  O
  O82      1.0000 0.20706  0.81198  0.10416  Biso   1.000  O
  O83      1.0000 0.03331  0.11060  0.80553  Biso   1.000  O
  O84      1.0000 0.03331  0.98573  0.80553  Biso   1.000  O
  O85      1.0000 0.03331  0.98573  0.10416  Biso   1.000  O
  O86      1.0000 0.03331  0.11060  0.97928  Biso   1.000  O
  O87      1.0000 0.33193  0.81198  0.80553  Biso   1.000  O
  O88      1.0000 0.20706  0.81198  0.80553  Biso   1.000  O
  O89      1.0000 0.20706  0.11060  0.80553  Biso   1.000  O
  O90      1.0000 0.33193  0.98573  0.80553  Biso   1.000  O
  O91      1.0000 0.03331  0.81198  0.10416  Biso   1.000  O
  O92      1.0000 0.03331  0.81198  0.97928  Biso   1.000  O
  O93      1.0000 0.49622  0.53972  0.35952  Biso   1.000  O
  O94      1.0000 0.62109  0.53972  0.23465  Biso   1.000  O
  O95      1.0000 0.79484  0.36597  0.53327  Biso   1.000  O
  O96      1.0000 0.79484  0.24110  0.53327  Biso   1.000  O
  O97      1.0000 0.79484  0.53972  0.23465  Biso   1.000  O
  O98      1.0000 0.79484  0.53972  0.35952  Biso   1.000  O
  O99      1.0000 0.49622  0.36597  0.53327  Biso   1.000  O
  O100     1.0000 0.62109  0.24110  0.53327  Biso   1.000  O
  O101     1.0000 0.62109  0.53972  0.53327  Biso   1.000  O
  O102     1.0000 0.49622  0.53972  0.53327  Biso   1.000  O
  O103     1.0000 0.79484  0.36597  0.23465  Biso   1.000  O
  O104     1.0000 0.79484  0.24110  0.35952  Biso   1.000  O
  O105     1.0000 0.15140  0.93007  0.92363  Biso   1.000  O
  O106     1.0000 0.67675  0.42162  0.41518  Biso   1.000  O
