data_image0
_cell_length_a       18.3054
_cell_length_b       18.3054
_cell_length_c       18.3054
_cell_angle_alpha    60
_cell_angle_beta     60
_cell_angle_gamma    60

_symmetry_space_group_name_H-M    "P 1"
_symmetry_int_tables_number       1

loop_
  _symmetry_equiv_pos_as_xyz
  'x, y, z'

loop_
  _atom_site_label
  _atom_site_occupancy
  _atom_site_fract_x
  _atom_site_fract_y
  _atom_site_fract_z
  _atom_site_thermal_displace_type
  _atom_site_B_iso_or_equiv
  _atom_site_type_symbol
  C1       1.0000 0.20620  0.38140  0.20620  Biso   1.000  C
  C2       1.0000 0.38140  0.20620  0.20620  Biso   1.000  C
  C3       1.0000 0.20620  0.20620  0.20620  Biso   1.000  C
  C4       1.0000 0.20620  0.20620  0.38140  Biso   1.000  C
  C5       1.0000 0.61860  0.79380  0.79380  Biso   1.000  C
  C6       1.0000 0.79380  0.61860  0.79380  Biso   1.000  C
  C7       1.0000 0.79380  0.79380  0.79380  Biso   1.000  C
  C8       1.0000 0.79380  0.79380  0.61860  Biso   1.000  C
  C9       1.0000 0.04910  0.56290  0.04910  Biso   1.000  C
  C10      1.0000 0.56290  0.04910  0.33890  Biso   1.000  C
  C11      1.0000 0.04910  0.33890  0.04910  Biso   1.000  C
  C12      1.0000 0.33890  0.04910  0.56290  Biso   1.000  C
  C13      1.0000 0.04910  0.04910  0.33890  Biso   1.000  C
  C14      1.0000 0.56290  0.33890  0.04910  Biso   1.000  C
  C15      1.0000 0.04910  0.04910  0.56290  Biso   1.000  C
  C16      1.0000 0.33890  0.56290  0.04910  Biso   1.000  C
  C17      1.0000 0.04910  0.33890  0.56290  Biso   1.000  C
  C18      1.0000 0.56290  0.04910  0.04910  Biso   1.000  C
  C19      1.0000 0.04910  0.56290  0.33890  Biso   1.000  C
  C20      1.0000 0.33890  0.04910  0.04910  Biso   1.000  C
  C21      1.0000 0.43710  0.95090  0.95090  Biso   1.000  C
  C22      1.0000 0.95090  0.43710  0.66110  Biso   1.000  C
  C23      1.0000 0.66110  0.95090  0.95090  Biso   1.000  C
  C24      1.0000 0.95090  0.66110  0.43710  Biso   1.000  C
  C25      1.0000 0.95090  0.95090  0.66110  Biso   1.000  C
  C26      1.0000 0.66110  0.43710  0.95090  Biso   1.000  C
  C27      1.0000 0.95090  0.95090  0.43710  Biso   1.000  C
  C28      1.0000 0.43710  0.66110  0.95090  Biso   1.000  C
  C29      1.0000 0.66110  0.95090  0.43710  Biso   1.000  C
  C30      1.0000 0.95090  0.43710  0.95090  Biso   1.000  C
  C31      1.0000 0.43710  0.95090  0.66110  Biso   1.000  C
  C32      1.0000 0.95090  0.66110  0.95090  Biso   1.000  C
  C33      1.0000 0.02610  0.53970  0.02610  Biso   1.000  C
  C34      1.0000 0.53970  0.02610  0.40810  Biso   1.000  C
  C35      1.0000 0.02610  0.40810  0.02610  Biso   1.000  C
  C36      1.0000 0.40810  0.02610  0.53970  Biso   1.000  C
  C37      1.0000 0.02610  0.02610  0.40810  Biso   1.000  C
  C38      1.0000 0.53970  0.40810  0.02610  Biso   1.000  C
  C39      1.0000 0.02610  0.02610  0.53970  Biso   1.000  C
  C40      1.0000 0.40810  0.53970  0.02610  Biso   1.000  C
  C41      1.0000 0.02610  0.40810  0.53970  Biso   1.000  C
  C42      1.0000 0.53970  0.02610  0.02610  Biso   1.000  C
  C43      1.0000 0.02610  0.53970  0.40810  Biso   1.000  C
  C44      1.0000 0.40810  0.02610  0.02610  Biso   1.000  C
  C45      1.0000 0.46030  0.97390  0.97390  Biso   1.000  C
  C46      1.0000 0.97390  0.46030  0.59190  Biso   1.000  C
  C47      1.0000 0.59190  0.97390  0.97390  Biso   1.000  C
  C48      1.0000 0.97390  0.59190  0.46030  Biso   1.000  C
  C49      1.0000 0.97390  0.97390  0.59190  Biso   1.000  C
  C50      1.0000 0.59190  0.46030  0.97390  Biso   1.000  C
  C51      1.0000 0.97390  0.97390  0.46030  Biso   1.000  C
  C52      1.0000 0.46030  0.59190  0.97390  Biso   1.000  C
  C53      1.0000 0.59190  0.97390  0.46030  Biso   1.000  C
  C54      1.0000 0.97390  0.46030  0.97390  Biso   1.000  C
  C55      1.0000 0.46030  0.97390  0.59190  Biso   1.000  C
  C56      1.0000 0.97390  0.59190  0.97390  Biso   1.000  C
  C57      1.0000 0.10850  0.39150  0.10850  Biso   1.000  C
  C58      1.0000 0.05500  0.44500  0.05500  Biso   1.000  C
  C59      1.0000 0.39150  0.10850  0.39150  Biso   1.000  C
  C60      1.0000 0.44500  0.05500  0.44500  Biso   1.000  C
  C61      1.0000 0.10850  0.10850  0.39150  Biso   1.000  C
  C62      1.0000 0.05500  0.05500  0.44500  Biso   1.000  C
  C63      1.0000 0.39150  0.39150  0.10850  Biso   1.000  C
  C64      1.0000 0.44500  0.44500  0.05500  Biso   1.000  C
  C65      1.0000 0.10850  0.39150  0.39150  Biso   1.000  C
  C66      1.0000 0.05500  0.44500  0.44500  Biso   1.000  C
  C67      1.0000 0.39150  0.10850  0.10850  Biso   1.000  C
  C68      1.0000 0.44500  0.05500  0.05500  Biso   1.000  C
  C69      1.0000 0.60850  0.89150  0.89150  Biso   1.000  C
  C70      1.0000 0.55500  0.94500  0.94500  Biso   1.000  C
  C71      1.0000 0.89150  0.60850  0.60850  Biso   1.000  C
  C72      1.0000 0.94500  0.55500  0.55500  Biso   1.000  C
  C73      1.0000 0.89150  0.89150  0.60850  Biso   1.000  C
  C74      1.0000 0.94500  0.94500  0.55500  Biso   1.000  C
  C75      1.0000 0.60850  0.60850  0.89150  Biso   1.000  C
  C76      1.0000 0.55500  0.55500  0.94500  Biso   1.000  C
  C77      1.0000 0.60850  0.89150  0.60850  Biso   1.000  C
  C78      1.0000 0.55500  0.94500  0.55500  Biso   1.000  C
  C79      1.0000 0.89150  0.60850  0.89150  Biso   1.000  C
  C80      1.0000 0.94500  0.55500  0.94500  Biso   1.000  C
  C81      1.0000 0.25000  0.25000  0.25000  Biso   1.000  C
  C82      1.0000 0.75000  0.75000  0.75000  Biso   1.000  C
  C83      1.0000 0.13390  0.42730  0.13390  Biso   1.000  C
  C84      1.0000 0.42730  0.13390  0.30490  Biso   1.000  C
  C85      1.0000 0.13390  0.30490  0.13390  Biso   1.000  C
  C86      1.0000 0.30490  0.13390  0.42730  Biso   1.000  C
  C87      1.0000 0.13390  0.13390  0.30490  Biso   1.000  C
  C88      1.0000 0.42730  0.30490  0.13390  Biso   1.000  C
  C89      1.0000 0.13390  0.13390  0.42730  Biso   1.000  C
  C90      1.0000 0.30490  0.42730  0.13390  Biso   1.000  C
  C91      1.0000 0.13390  0.30490  0.42730  Biso   1.000  C
  C92      1.0000 0.42730  0.13390  0.13390  Biso   1.000  C
  C93      1.0000 0.13390  0.42730  0.30490  Biso   1.000  C
  C94      1.0000 0.30490  0.13390  0.13390  Biso   1.000  C
  C95      1.0000 0.57270  0.86610  0.86610  Biso   1.000  C
  C96      1.0000 0.86610  0.57270  0.69510  Biso   1.000  C
  C97      1.0000 0.69510  0.86610  0.86610  Biso   1.000  C
  C98      1.0000 0.86610  0.69510  0.57270  Biso   1.000  C
  C99      1.0000 0.86610  0.86610  0.69510  Biso   1.000  C
  C100     1.0000 0.69510  0.57270  0.86610  Biso   1.000  C
  C101     1.0000 0.86610  0.86610  0.57270  Biso   1.000  C
  C102     1.0000 0.57270  0.69510  0.86610  Biso   1.000  C
  C103     1.0000 0.69510  0.86610  0.57270  Biso   1.000  C
  C104     1.0000 0.86610  0.57270  0.86610  Biso   1.000  C
  C105     1.0000 0.57270  0.86610  0.69510  Biso   1.000  C
  C106     1.0000 0.86610  0.69510  0.86610  Biso   1.000  C
  O1       1.0000 0.90725  0.59555  0.58988  Biso   1.000  O
  O2       1.0000 0.32289  0.17978  0.00572  Biso   1.000  O
  O3       1.0000 0.32289  0.00593  0.00572  Biso   1.000  O
  O4       1.0000 0.90725  0.42169  0.58988  Biso   1.000  O
  O5       1.0000 0.90679  0.59588  0.41579  Biso   1.000  O
  O6       1.0000 0.73300  0.59570  0.58998  Biso   1.000  O
  O7       1.0000 0.32335  0.00559  0.17981  Biso   1.000  O
  O8       1.0000 0.49714  0.00578  0.00562  Biso   1.000  O
  O9       1.0000 0.07528  0.23725  0.44714  Biso   1.000  O
  O10      1.0000 0.06310  0.45668  0.23665  Biso   1.000  O
  O11      1.0000 0.77319  0.23833  0.74910  Biso   1.000  O
  O12      1.0000 0.55107  0.45416  0.75139  Biso   1.000  O
  O13      1.0000 0.07609  0.45615  0.74662  Biso   1.000  O
  O14      1.0000 0.15486  0.84677  0.14846  Biso   1.000  O
  O15      1.0000 0.16703  0.84358  0.35895  Biso   1.000  O
  O16      1.0000 0.45695  0.84768  0.84649  Biso   1.000  O
  O17      1.0000 0.67907  0.84371  0.84421  Biso   1.000  O
  O18      1.0000 0.15404  0.36593  0.84898  Biso   1.000  O
  O19      1.0000 0.15485  0.36423  0.14846  Biso   1.000  O
  O20      1.0000 0.16703  0.14480  0.35895  Biso   1.000  O
  O21      1.0000 0.45695  0.36315  0.84649  Biso   1.000  O
  O22      1.0000 0.67907  0.14731  0.84421  Biso   1.000  O
  O23      1.0000 0.15405  0.14532  0.84898  Biso   1.000  O
  O24      1.0000 0.07528  0.75470  0.44714  Biso   1.000  O
  O25      1.0000 0.06311  0.75789  0.23665  Biso   1.000  O
  O26      1.0000 0.77319  0.75379  0.74910  Biso   1.000  O
  O27      1.0000 0.55107  0.75777  0.75139  Biso   1.000  O
  O28      1.0000 0.07609  0.23554  0.74662  Biso   1.000  O
  O29      1.0000 0.55195  0.75659  0.44923  Biso   1.000  O
  O30      1.0000 0.76458  0.75770  0.23436  Biso   1.000  O
  O31      1.0000 0.67819  0.84489  0.14637  Biso   1.000  O
  O32      1.0000 0.46556  0.84378  0.36123  Biso   1.000  O
  O33      1.0000 0.00098  0.41322  0.41095  Biso   1.000  O
  O34      1.0000 0.06023  0.35547  0.35010  Biso   1.000  O
  O35      1.0000 0.09298  0.26280  0.38529  Biso   1.000  O
  O36      1.0000 0.08239  0.39494  0.26250  Biso   1.000  O
  O37      1.0000 0.72354  0.41639  0.68646  Biso   1.000  O
  O38      1.0000 0.66976  0.35823  0.74145  Biso   1.000  O
  O39      1.0000 0.71136  0.26437  0.76700  Biso   1.000  O
  O40      1.0000 0.57861  0.39253  0.76879  Biso   1.000  O
  O41      1.0000 0.09190  0.39442  0.76660  Biso   1.000  O
  O42      1.0000 0.22916  0.91228  0.18465  Biso   1.000  O
  O43      1.0000 0.16991  0.85293  0.24550  Biso   1.000  O
  O44      1.0000 0.13716  0.82818  0.21030  Biso   1.000  O
  O45      1.0000 0.14775  0.82698  0.33309  Biso   1.000  O
  O46      1.0000 0.50659  0.91349  0.90913  Biso   1.000  O
  O47      1.0000 0.56037  0.85653  0.85415  Biso   1.000  O
  O48      1.0000 0.51878  0.82979  0.82860  Biso   1.000  O
  O49      1.0000 0.65153  0.82701  0.82681  Biso   1.000  O
  O50      1.0000 0.13824  0.33999  0.82899  Biso   1.000  O
  O51      1.0000 0.22916  0.18825  0.18465  Biso   1.000  O
  O52      1.0000 0.16991  0.24601  0.24550  Biso   1.000  O
  O53      1.0000 0.13716  0.33868  0.21030  Biso   1.000  O
  O54      1.0000 0.14775  0.20654  0.33309  Biso   1.000  O
  O55      1.0000 0.50660  0.18509  0.90913  Biso   1.000  O
  O56      1.0000 0.56037  0.24324  0.85415  Biso   1.000  O
  O57      1.0000 0.51878  0.33710  0.82860  Biso   1.000  O
  O58      1.0000 0.65153  0.20895  0.82681  Biso   1.000  O
  O59      1.0000 0.13824  0.20706  0.82899  Biso   1.000  O
  O60      1.0000 0.00098  0.68919  0.41095  Biso   1.000  O
  O61      1.0000 0.06023  0.74854  0.35010  Biso   1.000  O
  O62      1.0000 0.09297  0.77330  0.38529  Biso   1.000  O
  O63      1.0000 0.08239  0.77450  0.26250  Biso   1.000  O
  O64      1.0000 0.72354  0.68798  0.68646  Biso   1.000  O
  O65      1.0000 0.66977  0.74494  0.74145  Biso   1.000  O
  O66      1.0000 0.71136  0.77169  0.76700  Biso   1.000  O
  O67      1.0000 0.57861  0.77447  0.76879  Biso   1.000  O
  O68      1.0000 0.09190  0.26149  0.76660  Biso   1.000  O
  O69      1.0000 0.73019  0.68999  0.40419  Biso   1.000  O
  O70      1.0000 0.66836  0.74685  0.35228  Biso   1.000  O
  O71      1.0000 0.57899  0.77389  0.38758  Biso   1.000  O
  O72      1.0000 0.70285  0.77509  0.26131  Biso   1.000  O
  O73      1.0000 0.99950  0.41818  0.67851  Biso   1.000  O
  O74      1.0000 0.05915  0.35684  0.74155  Biso   1.000  O
  O75      1.0000 0.49995  0.91149  0.19141  Biso   1.000  O
  O76      1.0000 0.56178  0.85462  0.24331  Biso   1.000  O
  O77      1.0000 0.65115  0.82758  0.20801  Biso   1.000  O
  O78      1.0000 0.52729  0.82638  0.33429  Biso   1.000  O
  O79      1.0000 0.23064  0.18330  0.91709  Biso   1.000  O
  O80      1.0000 0.17099  0.24464  0.85405  Biso   1.000  O
  O81      1.0000 0.98100  0.49812  0.36531  Biso   1.000  O
  O82      1.0000 0.98230  0.36958  0.49467  Biso   1.000  O
  O83      1.0000 0.68388  0.49910  0.66011  Biso   1.000  O
  O84      1.0000 0.80933  0.37255  0.66409  Biso   1.000  O
  O85      1.0000 0.98052  0.50010  0.66131  Biso   1.000  O
  O86      1.0000 0.24914  0.93157  0.23029  Biso   1.000  O
  O87      1.0000 0.24784  0.93366  0.10093  Biso   1.000  O
  O88      1.0000 0.54626  0.93019  0.93548  Biso   1.000  O
  O89      1.0000 0.42081  0.93307  0.93150  Biso   1.000  O
  O90      1.0000 0.24962  0.22902  0.93429  Biso   1.000  O
  O91      1.0000 0.24914  0.10335  0.23029  Biso   1.000  O
  O92      1.0000 0.24784  0.23190  0.10093  Biso   1.000  O
  O93      1.0000 0.54626  0.10237  0.93548  Biso   1.000  O
  O94      1.0000 0.42081  0.22893  0.93150  Biso   1.000  O
  O95      1.0000 0.24962  0.10138  0.93429  Biso   1.000  O
  O96      1.0000 0.98100  0.66991  0.36531  Biso   1.000  O
  O97      1.0000 0.98230  0.66781  0.49467  Biso   1.000  O
  O98      1.0000 0.68388  0.67128  0.66011  Biso   1.000  O
  O99      1.0000 0.80933  0.66840  0.66409  Biso   1.000  O
  O100     1.0000 0.98051  0.37245  0.66131  Biso   1.000  O
  O101     1.0000 0.86430  0.55200  0.54607  Biso   1.000  O
  O102     1.0000 0.81051  0.66891  0.36601  Biso   1.000  O
  O103     1.0000 0.68526  0.67119  0.48671  Biso   1.000  O
  O104     1.0000 0.36584  0.04948  0.04953  Biso   1.000  O
  O105     1.0000 0.41963  0.93256  0.22959  Biso   1.000  O
  O106     1.0000 0.54488  0.93028  0.10888  Biso   1.000  O
