data_image0
_cell_length_a       18.1507
_cell_length_b       18.1507
_cell_length_c       18.1507
_cell_angle_alpha    60
_cell_angle_beta     60
_cell_angle_gamma    60

_symmetry_space_group_name_H-M    "P 1"
_symmetry_int_tables_number       1

loop_
  _symmetry_equiv_pos_as_xyz
  'x, y, z'

loop_
  _atom_site_label
  _atom_site_occupancy
  _atom_site_fract_x
  _atom_site_fract_y
  _atom_site_fract_z
  _atom_site_thermal_displace_type
  _atom_site_B_iso_or_equiv
  _atom_site_type_symbol
  C1       1.0000 0.29350  0.29350  0.29350  Biso   1.000  C
  C2       1.0000 0.29350  0.29350  0.11950  Biso   1.000  C
  C3       1.0000 0.29350  0.11950  0.29350  Biso   1.000  C
  C4       1.0000 0.11950  0.29350  0.29350  Biso   1.000  C
  C5       1.0000 0.70650  0.70650  0.70650  Biso   1.000  C
  C6       1.0000 0.70650  0.70650  0.88050  Biso   1.000  C
  C7       1.0000 0.88050  0.70650  0.70650  Biso   1.000  C
  C8       1.0000 0.70650  0.88050  0.70650  Biso   1.000  C
  C9       1.0000 0.45480  0.45480  0.15700  Biso   1.000  C
  C10      1.0000 0.45480  0.45480  0.93340  Biso   1.000  C
  C11      1.0000 0.15700  0.93340  0.45480  Biso   1.000  C
  C12      1.0000 0.93340  0.15700  0.45480  Biso   1.000  C
  C13      1.0000 0.45480  0.15700  0.93340  Biso   1.000  C
  C14      1.0000 0.45480  0.93340  0.15700  Biso   1.000  C
  C15      1.0000 0.15700  0.45480  0.45480  Biso   1.000  C
  C16      1.0000 0.93340  0.45480  0.45480  Biso   1.000  C
  C17      1.0000 0.45480  0.93340  0.45480  Biso   1.000  C
  C18      1.0000 0.45480  0.15700  0.45480  Biso   1.000  C
  C19      1.0000 0.15700  0.45480  0.93340  Biso   1.000  C
  C20      1.0000 0.93340  0.45480  0.15700  Biso   1.000  C
  C21      1.0000 0.54520  0.54520  0.84300  Biso   1.000  C
  C22      1.0000 0.54520  0.54520  0.06660  Biso   1.000  C
  C23      1.0000 0.06660  0.84300  0.54520  Biso   1.000  C
  C24      1.0000 0.84300  0.06660  0.54520  Biso   1.000  C
  C25      1.0000 0.84300  0.54520  0.06660  Biso   1.000  C
  C26      1.0000 0.06660  0.54520  0.84300  Biso   1.000  C
  C27      1.0000 0.54520  0.84300  0.54520  Biso   1.000  C
  C28      1.0000 0.54520  0.06660  0.54520  Biso   1.000  C
  C29      1.0000 0.06660  0.54520  0.54520  Biso   1.000  C
  C30      1.0000 0.84300  0.54520  0.54520  Biso   1.000  C
  C31      1.0000 0.54520  0.84300  0.06660  Biso   1.000  C
  C32      1.0000 0.54520  0.06660  0.84300  Biso   1.000  C
  C33      1.0000 0.47370  0.47370  0.09250  Biso   1.000  C
  C34      1.0000 0.47370  0.47370  0.96010  Biso   1.000  C
  C35      1.0000 0.09250  0.96010  0.47370  Biso   1.000  C
  C36      1.0000 0.96010  0.09250  0.47370  Biso   1.000  C
  C37      1.0000 0.47370  0.09250  0.96010  Biso   1.000  C
  C38      1.0000 0.47370  0.96010  0.09250  Biso   1.000  C
  C39      1.0000 0.09250  0.47370  0.47370  Biso   1.000  C
  C40      1.0000 0.96010  0.47370  0.47370  Biso   1.000  C
  C41      1.0000 0.47370  0.96010  0.47370  Biso   1.000  C
  C42      1.0000 0.47370  0.09250  0.47370  Biso   1.000  C
  C43      1.0000 0.09250  0.47370  0.96010  Biso   1.000  C
  C44      1.0000 0.96010  0.47370  0.09250  Biso   1.000  C
  C45      1.0000 0.52630  0.52630  0.90750  Biso   1.000  C
  C46      1.0000 0.52630  0.52630  0.03990  Biso   1.000  C
  C47      1.0000 0.03990  0.90750  0.52630  Biso   1.000  C
  C48      1.0000 0.90750  0.03990  0.52630  Biso   1.000  C
  C49      1.0000 0.90750  0.52630  0.03990  Biso   1.000  C
  C50      1.0000 0.03990  0.52630  0.90750  Biso   1.000  C
  C51      1.0000 0.52630  0.90750  0.52630  Biso   1.000  C
  C52      1.0000 0.52630  0.03990  0.52630  Biso   1.000  C
  C53      1.0000 0.03990  0.52630  0.52630  Biso   1.000  C
  C54      1.0000 0.90750  0.52630  0.52630  Biso   1.000  C
  C55      1.0000 0.52630  0.90750  0.03990  Biso   1.000  C
  C56      1.0000 0.52630  0.03990  0.90750  Biso   1.000  C
  C57      1.0000 0.38950  0.38950  0.11050  Biso   1.000  C
  C58      1.0000 0.44620  0.44620  0.05380  Biso   1.000  C
  C59      1.0000 0.11050  0.11050  0.38950  Biso   1.000  C
  C60      1.0000 0.05380  0.05380  0.44620  Biso   1.000  C
  C61      1.0000 0.38950  0.11050  0.11050  Biso   1.000  C
  C62      1.0000 0.44620  0.05380  0.05380  Biso   1.000  C
  C63      1.0000 0.11050  0.38950  0.38950  Biso   1.000  C
  C64      1.0000 0.05380  0.44620  0.44620  Biso   1.000  C
  C65      1.0000 0.38950  0.11050  0.38950  Biso   1.000  C
  C66      1.0000 0.44620  0.05380  0.44620  Biso   1.000  C
  C67      1.0000 0.11050  0.38950  0.11050  Biso   1.000  C
  C68      1.0000 0.05380  0.44620  0.05380  Biso   1.000  C
  C69      1.0000 0.61050  0.61050  0.88950  Biso   1.000  C
  C70      1.0000 0.55380  0.55380  0.94620  Biso   1.000  C
  C71      1.0000 0.88950  0.88950  0.61050  Biso   1.000  C
  C72      1.0000 0.94620  0.94620  0.55380  Biso   1.000  C
  C73      1.0000 0.88950  0.61050  0.88950  Biso   1.000  C
  C74      1.0000 0.94620  0.55380  0.94620  Biso   1.000  C
  C75      1.0000 0.61050  0.88950  0.61050  Biso   1.000  C
  C76      1.0000 0.55380  0.94620  0.55380  Biso   1.000  C
  C77      1.0000 0.88950  0.61050  0.61050  Biso   1.000  C
  C78      1.0000 0.94620  0.55380  0.55380  Biso   1.000  C
  C79      1.0000 0.61050  0.88950  0.88950  Biso   1.000  C
  C80      1.0000 0.55380  0.94620  0.94620  Biso   1.000  C
  C81      1.0000 0.25000  0.25000  0.25000  Biso   1.000  C
  C82      1.0000 0.75000  0.75000  0.75000  Biso   1.000  C
  C83      1.0000 0.36610  0.36610  0.19750  Biso   1.000  C
  C84      1.0000 0.36610  0.36610  0.07030  Biso   1.000  C
  C85      1.0000 0.19750  0.07030  0.36610  Biso   1.000  C
  C86      1.0000 0.07030  0.19750  0.36610  Biso   1.000  C
  C87      1.0000 0.36610  0.19750  0.07030  Biso   1.000  C
  C88      1.0000 0.36610  0.07030  0.19750  Biso   1.000  C
  C89      1.0000 0.19750  0.36610  0.36610  Biso   1.000  C
  C90      1.0000 0.07030  0.36610  0.36610  Biso   1.000  C
  C91      1.0000 0.36610  0.07030  0.36610  Biso   1.000  C
  C92      1.0000 0.36610  0.19750  0.36610  Biso   1.000  C
  C93      1.0000 0.19750  0.36610  0.07030  Biso   1.000  C
  C94      1.0000 0.07030  0.36610  0.19750  Biso   1.000  C
  C95      1.0000 0.63390  0.63390  0.80250  Biso   1.000  C
  C96      1.0000 0.63390  0.63390  0.92970  Biso   1.000  C
  C97      1.0000 0.92970  0.80250  0.63390  Biso   1.000  C
  C98      1.0000 0.80250  0.92970  0.63390  Biso   1.000  C
  C99      1.0000 0.80250  0.63390  0.92970  Biso   1.000  C
  C100     1.0000 0.92970  0.63390  0.80250  Biso   1.000  C
  C101     1.0000 0.63390  0.80250  0.63390  Biso   1.000  C
  C102     1.0000 0.63390  0.92970  0.63390  Biso   1.000  C
  C103     1.0000 0.92970  0.63390  0.63390  Biso   1.000  C
  C104     1.0000 0.80250  0.63390  0.63390  Biso   1.000  C
  C105     1.0000 0.63390  0.80250  0.92970  Biso   1.000  C
  C106     1.0000 0.63390  0.92970  0.80250  Biso   1.000  C
  O1       1.0000 0.12824  0.89878  0.94999  Biso   1.000  O
  O2       1.0000 0.53428  0.30481  0.54401  Biso   1.000  O
  O3       1.0000 0.35798  0.48111  0.54401  Biso   1.000  O
  O4       1.0000 0.95194  0.07508  0.94999  Biso   1.000  O
  O5       1.0000 0.95174  0.89858  0.12646  Biso   1.000  O
  O6       1.0000 0.95187  0.89871  0.94978  Biso   1.000  O
  O7       1.0000 0.53448  0.48131  0.36755  Biso   1.000  O
  O8       1.0000 0.53435  0.48118  0.54423  Biso   1.000  O
  O9       1.0000 0.78741  0.24889  0.09298  Biso   1.000  O
  O10      1.0000 0.78426  0.04152  0.30930  Biso   1.000  O
  O11      1.0000 0.79107  0.24689  0.78706  Biso   1.000  O
  O12      1.0000 0.79055  0.04033  0.78170  Biso   1.000  O
  O13      1.0000 0.30118  0.04094  0.78888  Biso   1.000  O
  O14      1.0000 0.18415  0.64565  0.40103  Biso   1.000  O
  O15      1.0000 0.39155  0.64880  0.18471  Biso   1.000  O
  O16      1.0000 0.18615  0.64199  0.70695  Biso   1.000  O
  O17      1.0000 0.39273  0.64250  0.71231  Biso   1.000  O
  O18      1.0000 0.39212  0.13189  0.70512  Biso   1.000  O
  O19      1.0000 0.69881  0.13100  0.40103  Biso   1.000  O
  O20      1.0000 0.70197  0.33838  0.18471  Biso   1.000  O
  O21      1.0000 0.69515  0.13300  0.70695  Biso   1.000  O
  O22      1.0000 0.69567  0.33956  0.71231  Biso   1.000  O
  O23      1.0000 0.18505  0.33896  0.70512  Biso   1.000  O
  O24      1.0000 0.30207  0.73424  0.09298  Biso   1.000  O
  O25      1.0000 0.09467  0.73110  0.30930  Biso   1.000  O
  O26      1.0000 0.30007  0.73790  0.78706  Biso   1.000  O
  O27      1.0000 0.09349  0.73739  0.78170  Biso   1.000  O
  O28      1.0000 0.09410  0.24800  0.78888  Biso   1.000  O
  O29      1.0000 0.78872  0.73556  0.09227  Biso   1.000  O
  O30      1.0000 0.78598  0.73281  0.31324  Biso   1.000  O
  O31      1.0000 0.69750  0.64434  0.40173  Biso   1.000  O
  O32      1.0000 0.70024  0.64708  0.18076  Biso   1.000  O
  O33      1.0000 0.85616  0.08490  0.13212  Biso   1.000  O
  O34      1.0000 0.79670  0.14253  0.19320  Biso   1.000  O
  O35      1.0000 0.77032  0.22210  0.15599  Biso   1.000  O
  O36      1.0000 0.76848  0.10441  0.28341  Biso   1.000  O
  O37      1.0000 0.85658  0.08370  0.85239  Biso   1.000  O
  O38      1.0000 0.80006  0.14003  0.79485  Biso   1.000  O
  O39      1.0000 0.77196  0.22090  0.76937  Biso   1.000  O
  O40      1.0000 0.77155  0.10302  0.76593  Biso   1.000  O
  O41      1.0000 0.27458  0.10373  0.76916  Biso   1.000  O
  O42      1.0000 0.34816  0.57689  0.36189  Biso   1.000  O
  O43      1.0000 0.29053  0.63635  0.30081  Biso   1.000  O
  O44      1.0000 0.21095  0.66274  0.33802  Biso   1.000  O
  O45      1.0000 0.32866  0.66457  0.21060  Biso   1.000  O
  O46      1.0000 0.34936  0.57648  0.64162  Biso   1.000  O
  O47      1.0000 0.29304  0.63300  0.69916  Biso   1.000  O
  O48      1.0000 0.21214  0.66110  0.72464  Biso   1.000  O
  O49      1.0000 0.33004  0.66151  0.72808  Biso   1.000  O
  O50      1.0000 0.32933  0.15848  0.72485  Biso   1.000  O
  O51      1.0000 0.63007  0.29499  0.36189  Biso   1.000  O
  O52      1.0000 0.68952  0.23736  0.30081  Biso   1.000  O
  O53      1.0000 0.71590  0.15780  0.33802  Biso   1.000  O
  O54      1.0000 0.71774  0.27548  0.21060  Biso   1.000  O
  O55      1.0000 0.62964  0.29619  0.64162  Biso   1.000  O
  O56      1.0000 0.68616  0.23986  0.69916  Biso   1.000  O
  O57      1.0000 0.71426  0.15899  0.72464  Biso   1.000  O
  O58      1.0000 0.71467  0.27687  0.72808  Biso   1.000  O
  O59      1.0000 0.21164  0.27616  0.72485  Biso   1.000  O
  O60      1.0000 0.13806  0.80300  0.13212  Biso   1.000  O
  O61      1.0000 0.19569  0.74354  0.19320  Biso   1.000  O
  O62      1.0000 0.27527  0.71715  0.15599  Biso   1.000  O
  O63      1.0000 0.15756  0.71532  0.28341  Biso   1.000  O
  O64      1.0000 0.13686  0.80342  0.85239  Biso   1.000  O
  O65      1.0000 0.19318  0.74690  0.79485  Biso   1.000  O
  O66      1.0000 0.27408  0.71879  0.76937  Biso   1.000  O
  O67      1.0000 0.15618  0.71838  0.76593  Biso   1.000  O
  O68      1.0000 0.15689  0.22141  0.76916  Biso   1.000  O
  O69      1.0000 0.85444  0.80128  0.13879  Biso   1.000  O
  O70      1.0000 0.79771  0.74455  0.19239  Biso   1.000  O
  O71      1.0000 0.77082  0.71766  0.15498  Biso   1.000  O
  O72      1.0000 0.76839  0.71522  0.28543  Biso   1.000  O
  O73      1.0000 0.13392  0.08077  0.85765  Biso   1.000  O
  O74      1.0000 0.19480  0.14165  0.79495  Biso   1.000  O
  O75      1.0000 0.63178  0.57861  0.35521  Biso   1.000  O
  O76      1.0000 0.68851  0.63534  0.30161  Biso   1.000  O
  O77      1.0000 0.71540  0.66224  0.33903  Biso   1.000  O
  O78      1.0000 0.71784  0.66467  0.20857  Biso   1.000  O
  O79      1.0000 0.35230  0.29912  0.63636  Biso   1.000  O
  O80      1.0000 0.29142  0.23825  0.69906  Biso   1.000  O
  O81      1.0000 0.87648  0.99825  0.17611  Biso   1.000  O
  O82      1.0000 0.87891  0.12586  0.04849  Biso   1.000  O
  O83      1.0000 0.87619  0.99715  0.87798  Biso   1.000  O
  O84      1.0000 0.87841  0.12435  0.87515  Biso   1.000  O
  O85      1.0000 0.17680  0.99685  0.87747  Biso   1.000  O
  O86      1.0000 0.43482  0.55657  0.31790  Biso   1.000  O
  O87      1.0000 0.30721  0.55414  0.44552  Biso   1.000  O
  O88      1.0000 0.43591  0.55686  0.61603  Biso   1.000  O
  O89      1.0000 0.30872  0.55464  0.61886  Biso   1.000  O
  O90      1.0000 0.43622  0.25625  0.61653  Biso   1.000  O
  O91      1.0000 0.60974  0.38165  0.31790  Biso   1.000  O
  O92      1.0000 0.60731  0.25403  0.44552  Biso   1.000  O
  O93      1.0000 0.61003  0.38274  0.61603  Biso   1.000  O
  O94      1.0000 0.60781  0.25554  0.61886  Biso   1.000  O
  O95      1.0000 0.30943  0.38305  0.61653  Biso   1.000  O
  O96      1.0000 0.05140  0.82332  0.17611  Biso   1.000  O
  O97      1.0000 0.17901  0.82575  0.04849  Biso   1.000  O
  O98      1.0000 0.05031  0.82303  0.87798  Biso   1.000  O
  O99      1.0000 0.17751  0.82526  0.87515  Biso   1.000  O
  O100     1.0000 0.05000  0.12364  0.87747  Biso   1.000  O
  O101     1.0000 0.99580  0.94264  0.99438  Biso   1.000  O
  O102     1.0000 0.87789  0.82473  0.17510  Biso   1.000  O
  O103     1.0000 0.87628  0.82312  0.05324  Biso   1.000  O
  O104     1.0000 0.49042  0.43725  0.49963  Biso   1.000  O
  O105     1.0000 0.60833  0.55516  0.31891  Biso   1.000  O
  O106     1.0000 0.60994  0.55677  0.44077  Biso   1.000  O
