data_image0
_cell_length_a       18.1507
_cell_length_b       18.1507
_cell_length_c       18.1507
_cell_angle_alpha    60
_cell_angle_beta     60
_cell_angle_gamma    60

_symmetry_space_group_name_H-M    "P 1"
_symmetry_int_tables_number       1

loop_
  _symmetry_equiv_pos_as_xyz
  'x, y, z'

loop_
  _atom_site_label
  _atom_site_occupancy
  _atom_site_fract_x
  _atom_site_fract_y
  _atom_site_fract_z
  _atom_site_thermal_displace_type
  _atom_site_B_iso_or_equiv
  _atom_site_type_symbol
  Zn1      1.0000 0.29350  0.29350  0.29350  Biso   1.000  Zn
  Zn2      1.0000 0.29350  0.29350  0.11950  Biso   1.000  Zn
  Zn3      1.0000 0.29350  0.11950  0.29350  Biso   1.000  Zn
  Zn4      1.0000 0.11950  0.29350  0.29350  Biso   1.000  Zn
  Zn5      1.0000 0.70650  0.70650  0.70650  Biso   1.000  Zn
  Zn6      1.0000 0.70650  0.70650  0.88050  Biso   1.000  Zn
  Zn7      1.0000 0.88050  0.70650  0.70650  Biso   1.000  Zn
  Zn8      1.0000 0.70650  0.88050  0.70650  Biso   1.000  Zn
  H1       1.0000 0.45480  0.45480  0.15700  Biso   1.000  H
  H2       1.0000 0.45480  0.45480  0.93340  Biso   1.000  H
  H3       1.0000 0.15700  0.93340  0.45480  Biso   1.000  H
  H4       1.0000 0.93340  0.15700  0.45480  Biso   1.000  H
  H5       1.0000 0.45480  0.15700  0.93340  Biso   1.000  H
  H6       1.0000 0.45480  0.93340  0.15700  Biso   1.000  H
  H7       1.0000 0.15700  0.45480  0.45480  Biso   1.000  H
  H8       1.0000 0.93340  0.45480  0.45480  Biso   1.000  H
  H9       1.0000 0.45480  0.93340  0.45480  Biso   1.000  H
  H10      1.0000 0.45480  0.15700  0.45480  Biso   1.000  H
  H11      1.0000 0.15700  0.45480  0.93340  Biso   1.000  H
  H12      1.0000 0.93340  0.45480  0.15700  Biso   1.000  H
  H13      1.0000 0.54520  0.54520  0.84300  Biso   1.000  H
  H14      1.0000 0.54520  0.54520  0.06660  Biso   1.000  H
  H15      1.0000 0.06660  0.84300  0.54520  Biso   1.000  H
  H16      1.0000 0.84300  0.06660  0.54520  Biso   1.000  H
  H17      1.0000 0.84300  0.54520  0.06660  Biso   1.000  H
  H18      1.0000 0.06660  0.54520  0.84300  Biso   1.000  H
  H19      1.0000 0.54520  0.84300  0.54520  Biso   1.000  H
  H20      1.0000 0.54520  0.06660  0.54520  Biso   1.000  H
  H21      1.0000 0.06660  0.54520  0.54520  Biso   1.000  H
  H22      1.0000 0.84300  0.54520  0.54520  Biso   1.000  H
  H23      1.0000 0.54520  0.84300  0.06660  Biso   1.000  H
  H24      1.0000 0.54520  0.06660  0.84300  Biso   1.000  H
  C1       1.0000 0.47370  0.47370  0.09250  Biso   1.000  C
  C2       1.0000 0.47370  0.47370  0.96010  Biso   1.000  C
  C3       1.0000 0.09250  0.96010  0.47370  Biso   1.000  C
  C4       1.0000 0.96010  0.09250  0.47370  Biso   1.000  C
  C5       1.0000 0.47370  0.09250  0.96010  Biso   1.000  C
  C6       1.0000 0.47370  0.96010  0.09250  Biso   1.000  C
  C7       1.0000 0.09250  0.47370  0.47370  Biso   1.000  C
  C8       1.0000 0.96010  0.47370  0.47370  Biso   1.000  C
  C9       1.0000 0.47370  0.96010  0.47370  Biso   1.000  C
  C10      1.0000 0.47370  0.09250  0.47370  Biso   1.000  C
  C11      1.0000 0.09250  0.47370  0.96010  Biso   1.000  C
  C12      1.0000 0.96010  0.47370  0.09250  Biso   1.000  C
  C13      1.0000 0.52630  0.52630  0.90750  Biso   1.000  C
  C14      1.0000 0.52630  0.52630  0.03990  Biso   1.000  C
  C15      1.0000 0.03990  0.90750  0.52630  Biso   1.000  C
  C16      1.0000 0.90750  0.03990  0.52630  Biso   1.000  C
  C17      1.0000 0.90750  0.52630  0.03990  Biso   1.000  C
  C18      1.0000 0.03990  0.52630  0.90750  Biso   1.000  C
  C19      1.0000 0.52630  0.90750  0.52630  Biso   1.000  C
  C20      1.0000 0.52630  0.03990  0.52630  Biso   1.000  C
  C21      1.0000 0.03990  0.52630  0.52630  Biso   1.000  C
  C22      1.0000 0.90750  0.52630  0.52630  Biso   1.000  C
  C23      1.0000 0.52630  0.90750  0.03990  Biso   1.000  C
  C24      1.0000 0.52630  0.03990  0.90750  Biso   1.000  C
  C25      1.0000 0.38950  0.38950  0.11050  Biso   1.000  C
  C26      1.0000 0.44620  0.44620  0.05380  Biso   1.000  C
  C27      1.0000 0.11050  0.11050  0.38950  Biso   1.000  C
  C28      1.0000 0.05380  0.05380  0.44620  Biso   1.000  C
  C29      1.0000 0.38950  0.11050  0.11050  Biso   1.000  C
  C30      1.0000 0.44620  0.05380  0.05380  Biso   1.000  C
  C31      1.0000 0.11050  0.38950  0.38950  Biso   1.000  C
  C32      1.0000 0.05380  0.44620  0.44620  Biso   1.000  C
  C33      1.0000 0.38950  0.11050  0.38950  Biso   1.000  C
  C34      1.0000 0.44620  0.05380  0.44620  Biso   1.000  C
  C35      1.0000 0.11050  0.38950  0.11050  Biso   1.000  C
  C36      1.0000 0.05380  0.44620  0.05380  Biso   1.000  C
  C37      1.0000 0.61050  0.61050  0.88950  Biso   1.000  C
  C38      1.0000 0.55380  0.55380  0.94620  Biso   1.000  C
  C39      1.0000 0.88950  0.88950  0.61050  Biso   1.000  C
  C40      1.0000 0.94620  0.94620  0.55380  Biso   1.000  C
  C41      1.0000 0.88950  0.61050  0.88950  Biso   1.000  C
  C42      1.0000 0.94620  0.55380  0.94620  Biso   1.000  C
  C43      1.0000 0.61050  0.88950  0.61050  Biso   1.000  C
  C44      1.0000 0.55380  0.94620  0.55380  Biso   1.000  C
  C45      1.0000 0.88950  0.61050  0.61050  Biso   1.000  C
  C46      1.0000 0.94620  0.55380  0.55380  Biso   1.000  C
  C47      1.0000 0.61050  0.88950  0.88950  Biso   1.000  C
  C48      1.0000 0.55380  0.94620  0.94620  Biso   1.000  C
  O1       1.0000 0.25000  0.25000  0.25000  Biso   1.000  O
  O2       1.0000 0.75000  0.75000  0.75000  Biso   1.000  O
  O3       1.0000 0.36610  0.36610  0.19750  Biso   1.000  O
  O4       1.0000 0.36610  0.36610  0.07030  Biso   1.000  O
  O5       1.0000 0.19750  0.07030  0.36610  Biso   1.000  O
  O6       1.0000 0.07030  0.19750  0.36610  Biso   1.000  O
  O7       1.0000 0.36610  0.19750  0.07030  Biso   1.000  O
  O8       1.0000 0.36610  0.07030  0.19750  Biso   1.000  O
  O9       1.0000 0.19750  0.36610  0.36610  Biso   1.000  O
  O10      1.0000 0.07030  0.36610  0.36610  Biso   1.000  O
  O11      1.0000 0.36610  0.07030  0.36610  Biso   1.000  O
  O12      1.0000 0.36610  0.19750  0.36610  Biso   1.000  O
  O13      1.0000 0.19750  0.36610  0.07030  Biso   1.000  O
  O14      1.0000 0.07030  0.36610  0.19750  Biso   1.000  O
  O15      1.0000 0.63390  0.63390  0.80250  Biso   1.000  O
  O16      1.0000 0.63390  0.63390  0.92970  Biso   1.000  O
  O17      1.0000 0.92970  0.80250  0.63390  Biso   1.000  O
  O18      1.0000 0.80250  0.92970  0.63390  Biso   1.000  O
  O19      1.0000 0.80250  0.63390  0.92970  Biso   1.000  O
  O20      1.0000 0.92970  0.63390  0.80250  Biso   1.000  O
  O21      1.0000 0.63390  0.80250  0.63390  Biso   1.000  O
  O22      1.0000 0.63390  0.92970  0.63390  Biso   1.000  O
  O23      1.0000 0.92970  0.63390  0.63390  Biso   1.000  O
  O24      1.0000 0.80250  0.63390  0.63390  Biso   1.000  O
  O25      1.0000 0.63390  0.80250  0.92970  Biso   1.000  O
  O26      1.0000 0.63390  0.92970  0.80250  Biso   1.000  O
  Zn9      1.0000 0.60258  0.07838  0.71639  Biso   1.000  Zn
  Zn10     1.0000 0.60258  0.25569  0.71639  Biso   1.000  Zn
  Zn11     1.0000 0.42527  0.25569  0.71639  Biso   1.000  Zn
  Zn12     1.0000 0.60258  0.25569  0.53908  Biso   1.000  Zn
  Zn13     1.0000 0.03894  0.65870  0.11940  Biso   1.000  Zn
  Zn14     1.0000 0.03894  0.83601  0.11940  Biso   1.000  Zn
  Zn15     1.0000 0.21625  0.65870  0.11940  Biso   1.000  Zn
  Zn16     1.0000 0.03894  0.65870  0.29671  Biso   1.000  Zn
  H25      1.0000 0.46950  0.89040  0.87692  Biso   1.000  H
  H26      1.0000 0.76311  0.41622  0.58331  Biso   1.000  H
  H27      1.0000 0.23729  0.12261  0.87692  Biso   1.000  H
  H28      1.0000 0.76311  0.41622  0.35110  Biso   1.000  H
  H29      1.0000 0.23729  0.41622  0.58331  Biso   1.000  H
  H30      1.0000 0.76311  0.12261  0.87692  Biso   1.000  H
  H31      1.0000 0.46950  0.41622  0.35110  Biso   1.000  H
  H32      1.0000 0.76311  0.89040  0.87692  Biso   1.000  H
  H33      1.0000 0.76311  0.12261  0.35110  Biso   1.000  H
  H34      1.0000 0.46950  0.41622  0.87692  Biso   1.000  H
  H35      1.0000 0.76311  0.89040  0.58331  Biso   1.000  H
  H36      1.0000 0.23729  0.41622  0.87692  Biso   1.000  H
  H37      1.0000 0.17202  0.49817  0.95887  Biso   1.000  H
  H38      1.0000 0.87840  0.02399  0.25248  Biso   1.000  H
  H39      1.0000 0.40423  0.49817  0.95887  Biso   1.000  H
  H40      1.0000 0.87840  0.79178  0.48469  Biso   1.000  H
  H41      1.0000 0.40423  0.49817  0.25248  Biso   1.000  H
  H42      1.0000 0.87840  0.02399  0.95887  Biso   1.000  H
  H43      1.0000 0.17202  0.49817  0.48469  Biso   1.000  H
  H44      1.0000 0.87840  0.79178  0.95887  Biso   1.000  H
  H45      1.0000 0.87840  0.49817  0.48469  Biso   1.000  H
  H46      1.0000 0.17202  0.02399  0.95887  Biso   1.000  H
  H47      1.0000 0.87840  0.49817  0.25248  Biso   1.000  H
  H48      1.0000 0.40423  0.79178  0.95887  Biso   1.000  H
  C49      1.0000 0.39762  0.91734  0.89939  Biso   1.000  C
  C50      1.0000 0.78558  0.43869  0.51143  Biso   1.000  C
  C51      1.0000 0.26423  0.05073  0.89939  Biso   1.000  C
  C52      1.0000 0.78558  0.43869  0.37804  Biso   1.000  C
  C53      1.0000 0.26423  0.43869  0.51143  Biso   1.000  C
  C54      1.0000 0.78558  0.05073  0.89939  Biso   1.000  C
  C55      1.0000 0.39762  0.43869  0.37804  Biso   1.000  C
  C56      1.0000 0.78558  0.91734  0.89939  Biso   1.000  C
  C57      1.0000 0.78558  0.05073  0.37804  Biso   1.000  C
  C58      1.0000 0.39762  0.43869  0.89939  Biso   1.000  C
  C59      1.0000 0.78558  0.91734  0.51143  Biso   1.000  C
  C60      1.0000 0.26423  0.43869  0.89939  Biso   1.000  C
  C61      1.0000 0.24390  0.47570  0.93640  Biso   1.000  C
  C62      1.0000 0.85594  0.99705  0.32436  Biso   1.000  C
  C63      1.0000 0.37729  0.47570  0.93640  Biso   1.000  C
  C64      1.0000 0.85594  0.86366  0.45775  Biso   1.000  C
  C65      1.0000 0.37729  0.47570  0.32436  Biso   1.000  C
  C66      1.0000 0.85594  0.99705  0.93640  Biso   1.000  C
  C67      1.0000 0.24390  0.47570  0.45775  Biso   1.000  C
  C68      1.0000 0.85594  0.86366  0.93640  Biso   1.000  C
  C69      1.0000 0.85594  0.47570  0.45775  Biso   1.000  C
  C70      1.0000 0.24390  0.99705  0.93640  Biso   1.000  C
  C71      1.0000 0.85594  0.47570  0.32436  Biso   1.000  C
  C72      1.0000 0.37729  0.86366  0.93640  Biso   1.000  C
  C73      1.0000 0.41643  0.06954  0.81389  Biso   1.000  C
  C74      1.0000 0.35929  0.01240  0.87103  Biso   1.000  C
  C75      1.0000 0.70008  0.35319  0.53024  Biso   1.000  C
  C76      1.0000 0.75722  0.41033  0.47310  Biso   1.000  C
  C77      1.0000 0.41643  0.35319  0.53024  Biso   1.000  C
  C78      1.0000 0.35929  0.41033  0.47310  Biso   1.000  C
  C79      1.0000 0.70008  0.06954  0.81389  Biso   1.000  C
  C80      1.0000 0.75722  0.01240  0.87103  Biso   1.000  C
  C81      1.0000 0.70008  0.06954  0.53024  Biso   1.000  C
  C82      1.0000 0.75722  0.01240  0.47310  Biso   1.000  C
  C83      1.0000 0.41643  0.35319  0.81389  Biso   1.000  C
  C84      1.0000 0.35929  0.41033  0.87103  Biso   1.000  C
  C85      1.0000 0.22509  0.56120  0.02190  Biso   1.000  C
  C86      1.0000 0.28223  0.50406  0.96476  Biso   1.000  C
  C87      1.0000 0.94144  0.84485  0.30555  Biso   1.000  C
  C88      1.0000 0.88430  0.90199  0.36269  Biso   1.000  C
  C89      1.0000 0.22509  0.56120  0.30555  Biso   1.000  C
  C90      1.0000 0.28223  0.50406  0.36269  Biso   1.000  C
  C91      1.0000 0.94144  0.84485  0.02190  Biso   1.000  C
  C92      1.0000 0.88430  0.90199  0.96476  Biso   1.000  C
  C93      1.0000 0.94144  0.56120  0.30555  Biso   1.000  C
  C94      1.0000 0.88430  0.50406  0.36269  Biso   1.000  C
  C95      1.0000 0.22509  0.84485  0.02190  Biso   1.000  C
  C96      1.0000 0.28223  0.90199  0.96476  Biso   1.000  C
  O27      1.0000 0.55825  0.21136  0.67206  Biso   1.000  O
  O28      1.0000 0.08326  0.70303  0.16373  Biso   1.000  O
  O29      1.0000 0.50223  0.03009  0.79071  Biso   1.000  O
  O30      1.0000 0.67690  0.33001  0.61604  Biso   1.000  O
  O31      1.0000 0.37698  0.15534  0.79071  Biso   1.000  O
  O32      1.0000 0.67690  0.33001  0.49079  Biso   1.000  O
  O33      1.0000 0.37698  0.33001  0.61604  Biso   1.000  O
  O34      1.0000 0.67690  0.15534  0.79071  Biso   1.000  O
  O35      1.0000 0.50223  0.33001  0.49079  Biso   1.000  O
  O36      1.0000 0.67690  0.03009  0.79071  Biso   1.000  O
  O37      1.0000 0.67690  0.15534  0.49079  Biso   1.000  O
  O38      1.0000 0.50223  0.33001  0.79071  Biso   1.000  O
  O39      1.0000 0.67690  0.03009  0.61604  Biso   1.000  O
  O40      1.0000 0.37698  0.33001  0.79071  Biso   1.000  O
  O41      1.0000 0.13928  0.58438  0.04508  Biso   1.000  O
  O42      1.0000 0.96462  0.88430  0.21974  Biso   1.000  O
  O43      1.0000 0.26454  0.58438  0.04508  Biso   1.000  O
  O44      1.0000 0.96462  0.75904  0.34500  Biso   1.000  O
  O45      1.0000 0.26454  0.58438  0.21974  Biso   1.000  O
  O46      1.0000 0.96462  0.88430  0.04508  Biso   1.000  O
  O47      1.0000 0.13928  0.58438  0.34500  Biso   1.000  O
  O48      1.0000 0.96462  0.75904  0.04508  Biso   1.000  O
  O49      1.0000 0.96462  0.58438  0.34500  Biso   1.000  O
  O50      1.0000 0.13928  0.88430  0.04508  Biso   1.000  O
  O51      1.0000 0.96462  0.58438  0.21974  Biso   1.000  O
  O52      1.0000 0.26454  0.75904  0.04508  Biso   1.000  O
