data_image0
_cell_length_a       18.1507
_cell_length_b       18.1507
_cell_length_c       18.1507
_cell_angle_alpha    60
_cell_angle_beta     60
_cell_angle_gamma    60

_symmetry_space_group_name_H-M    "P 1"
_symmetry_int_tables_number       1

loop_
  _symmetry_equiv_pos_as_xyz
  'x, y, z'

loop_
  _atom_site_label
  _atom_site_occupancy
  _atom_site_fract_x
  _atom_site_fract_y
  _atom_site_fract_z
  _atom_site_thermal_displace_type
  _atom_site_B_iso_or_equiv
  _atom_site_type_symbol
  C1       1.0000 0.29350  0.29350  0.29350  Biso   1.000  C
  C2       1.0000 0.29350  0.29350  0.11950  Biso   1.000  C
  C3       1.0000 0.29350  0.11950  0.29350  Biso   1.000  C
  C4       1.0000 0.11950  0.29350  0.29350  Biso   1.000  C
  C5       1.0000 0.70650  0.70650  0.70650  Biso   1.000  C
  C6       1.0000 0.70650  0.70650  0.88050  Biso   1.000  C
  C7       1.0000 0.88050  0.70650  0.70650  Biso   1.000  C
  C8       1.0000 0.70650  0.88050  0.70650  Biso   1.000  C
  C9       1.0000 0.45480  0.45480  0.15700  Biso   1.000  C
  C10      1.0000 0.45480  0.45480  0.93340  Biso   1.000  C
  C11      1.0000 0.15700  0.93340  0.45480  Biso   1.000  C
  C12      1.0000 0.93340  0.15700  0.45480  Biso   1.000  C
  C13      1.0000 0.45480  0.15700  0.93340  Biso   1.000  C
  C14      1.0000 0.45480  0.93340  0.15700  Biso   1.000  C
  C15      1.0000 0.15700  0.45480  0.45480  Biso   1.000  C
  C16      1.0000 0.93340  0.45480  0.45480  Biso   1.000  C
  C17      1.0000 0.45480  0.93340  0.45480  Biso   1.000  C
  C18      1.0000 0.45480  0.15700  0.45480  Biso   1.000  C
  C19      1.0000 0.15700  0.45480  0.93340  Biso   1.000  C
  C20      1.0000 0.93340  0.45480  0.15700  Biso   1.000  C
  C21      1.0000 0.54520  0.54520  0.84300  Biso   1.000  C
  C22      1.0000 0.54520  0.54520  0.06660  Biso   1.000  C
  C23      1.0000 0.06660  0.84300  0.54520  Biso   1.000  C
  C24      1.0000 0.84300  0.06660  0.54520  Biso   1.000  C
  C25      1.0000 0.84300  0.54520  0.06660  Biso   1.000  C
  C26      1.0000 0.06660  0.54520  0.84300  Biso   1.000  C
  C27      1.0000 0.54520  0.84300  0.54520  Biso   1.000  C
  C28      1.0000 0.54520  0.06660  0.54520  Biso   1.000  C
  C29      1.0000 0.06660  0.54520  0.54520  Biso   1.000  C
  C30      1.0000 0.84300  0.54520  0.54520  Biso   1.000  C
  C31      1.0000 0.54520  0.84300  0.06660  Biso   1.000  C
  C32      1.0000 0.54520  0.06660  0.84300  Biso   1.000  C
  C33      1.0000 0.47370  0.47370  0.09250  Biso   1.000  C
  C34      1.0000 0.47370  0.47370  0.96010  Biso   1.000  C
  C35      1.0000 0.09250  0.96010  0.47370  Biso   1.000  C
  C36      1.0000 0.96010  0.09250  0.47370  Biso   1.000  C
  C37      1.0000 0.47370  0.09250  0.96010  Biso   1.000  C
  C38      1.0000 0.47370  0.96010  0.09250  Biso   1.000  C
  C39      1.0000 0.09250  0.47370  0.47370  Biso   1.000  C
  C40      1.0000 0.96010  0.47370  0.47370  Biso   1.000  C
  C41      1.0000 0.47370  0.96010  0.47370  Biso   1.000  C
  C42      1.0000 0.47370  0.09250  0.47370  Biso   1.000  C
  C43      1.0000 0.09250  0.47370  0.96010  Biso   1.000  C
  C44      1.0000 0.96010  0.47370  0.09250  Biso   1.000  C
  C45      1.0000 0.52630  0.52630  0.90750  Biso   1.000  C
  C46      1.0000 0.52630  0.52630  0.03990  Biso   1.000  C
  C47      1.0000 0.03990  0.90750  0.52630  Biso   1.000  C
  C48      1.0000 0.90750  0.03990  0.52630  Biso   1.000  C
  C49      1.0000 0.90750  0.52630  0.03990  Biso   1.000  C
  C50      1.0000 0.03990  0.52630  0.90750  Biso   1.000  C
  C51      1.0000 0.52630  0.90750  0.52630  Biso   1.000  C
  C52      1.0000 0.52630  0.03990  0.52630  Biso   1.000  C
  C53      1.0000 0.03990  0.52630  0.52630  Biso   1.000  C
  C54      1.0000 0.90750  0.52630  0.52630  Biso   1.000  C
  C55      1.0000 0.52630  0.90750  0.03990  Biso   1.000  C
  C56      1.0000 0.52630  0.03990  0.90750  Biso   1.000  C
  C57      1.0000 0.38950  0.38950  0.11050  Biso   1.000  C
  C58      1.0000 0.44620  0.44620  0.05380  Biso   1.000  C
  C59      1.0000 0.11050  0.11050  0.38950  Biso   1.000  C
  C60      1.0000 0.05380  0.05380  0.44620  Biso   1.000  C
  C61      1.0000 0.38950  0.11050  0.11050  Biso   1.000  C
  C62      1.0000 0.44620  0.05380  0.05380  Biso   1.000  C
  C63      1.0000 0.11050  0.38950  0.38950  Biso   1.000  C
  C64      1.0000 0.05380  0.44620  0.44620  Biso   1.000  C
  C65      1.0000 0.38950  0.11050  0.38950  Biso   1.000  C
  C66      1.0000 0.44620  0.05380  0.44620  Biso   1.000  C
  C67      1.0000 0.11050  0.38950  0.11050  Biso   1.000  C
  C68      1.0000 0.05380  0.44620  0.05380  Biso   1.000  C
  C69      1.0000 0.61050  0.61050  0.88950  Biso   1.000  C
  C70      1.0000 0.55380  0.55380  0.94620  Biso   1.000  C
  C71      1.0000 0.88950  0.88950  0.61050  Biso   1.000  C
  C72      1.0000 0.94620  0.94620  0.55380  Biso   1.000  C
  C73      1.0000 0.88950  0.61050  0.88950  Biso   1.000  C
  C74      1.0000 0.94620  0.55380  0.94620  Biso   1.000  C
  C75      1.0000 0.61050  0.88950  0.61050  Biso   1.000  C
  C76      1.0000 0.55380  0.94620  0.55380  Biso   1.000  C
  C77      1.0000 0.88950  0.61050  0.61050  Biso   1.000  C
  C78      1.0000 0.94620  0.55380  0.55380  Biso   1.000  C
  C79      1.0000 0.61050  0.88950  0.88950  Biso   1.000  C
  C80      1.0000 0.55380  0.94620  0.94620  Biso   1.000  C
  C81      1.0000 0.25000  0.25000  0.25000  Biso   1.000  C
  C82      1.0000 0.75000  0.75000  0.75000  Biso   1.000  C
  C83      1.0000 0.36610  0.36610  0.19750  Biso   1.000  C
  C84      1.0000 0.36610  0.36610  0.07030  Biso   1.000  C
  C85      1.0000 0.19750  0.07030  0.36610  Biso   1.000  C
  C86      1.0000 0.07030  0.19750  0.36610  Biso   1.000  C
  C87      1.0000 0.36610  0.19750  0.07030  Biso   1.000  C
  C88      1.0000 0.36610  0.07030  0.19750  Biso   1.000  C
  C89      1.0000 0.19750  0.36610  0.36610  Biso   1.000  C
  C90      1.0000 0.07030  0.36610  0.36610  Biso   1.000  C
  C91      1.0000 0.36610  0.07030  0.36610  Biso   1.000  C
  C92      1.0000 0.36610  0.19750  0.36610  Biso   1.000  C
  C93      1.0000 0.19750  0.36610  0.07030  Biso   1.000  C
  C94      1.0000 0.07030  0.36610  0.19750  Biso   1.000  C
  C95      1.0000 0.63390  0.63390  0.80250  Biso   1.000  C
  C96      1.0000 0.63390  0.63390  0.92970  Biso   1.000  C
  C97      1.0000 0.92970  0.80250  0.63390  Biso   1.000  C
  C98      1.0000 0.80250  0.92970  0.63390  Biso   1.000  C
  C99      1.0000 0.80250  0.63390  0.92970  Biso   1.000  C
  C100     1.0000 0.92970  0.63390  0.80250  Biso   1.000  C
  C101     1.0000 0.63390  0.80250  0.63390  Biso   1.000  C
  C102     1.0000 0.63390  0.92970  0.63390  Biso   1.000  C
  C103     1.0000 0.92970  0.63390  0.63390  Biso   1.000  C
  C104     1.0000 0.80250  0.63390  0.63390  Biso   1.000  C
  C105     1.0000 0.63390  0.80250  0.92970  Biso   1.000  C
  C106     1.0000 0.63390  0.92970  0.80250  Biso   1.000  C
  O1       1.0000 0.69377  0.35344  0.47500  Biso   1.000  O
  O2       1.0000 0.09955  0.75920  0.06916  Biso   1.000  O
  O3       1.0000 0.92273  0.93603  0.06916  Biso   1.000  O
  O4       1.0000 0.51695  0.53027  0.47500  Biso   1.000  O
  O5       1.0000 0.51660  0.35309  0.65207  Biso   1.000  O
  O6       1.0000 0.51680  0.35329  0.47490  Biso   1.000  O
  O7       1.0000 0.09989  0.93637  0.89209  Biso   1.000  O
  O8       1.0000 0.09970  0.93618  0.06926  Biso   1.000  O
  O9       1.0000 0.35508  0.70075  0.62018  Biso   1.000  O
  O10      1.0000 0.35182  0.49468  0.83427  Biso   1.000  O
  O11      1.0000 0.35600  0.69965  0.31305  Biso   1.000  O
  O12      1.0000 0.35195  0.49724  0.31072  Biso   1.000  O
  O13      1.0000 0.86601  0.49522  0.31558  Biso   1.000  O
  O14      1.0000 0.75222  0.09791  0.92398  Biso   1.000  O
  O15      1.0000 0.95831  0.10116  0.70988  Biso   1.000  O
  O16      1.0000 0.75332  0.09698  0.23111  Biso   1.000  O
  O17      1.0000 0.95575  0.10103  0.23343  Biso   1.000  O
  O18      1.0000 0.95777  0.58698  0.22858  Biso   1.000  O
  O19      1.0000 0.26142  0.58872  0.92398  Biso   1.000  O
  O20      1.0000 0.26468  0.79478  0.70988  Biso   1.000  O
  O21      1.0000 0.26049  0.58981  0.23111  Biso   1.000  O
  O22      1.0000 0.26455  0.79223  0.23343  Biso   1.000  O
  O23      1.0000 0.75049  0.79425  0.22858  Biso   1.000  O
  O24      1.0000 0.86428  0.19156  0.62018  Biso   1.000  O
  O25      1.0000 0.65819  0.18831  0.83427  Biso   1.000  O
  O26      1.0000 0.86318  0.19248  0.31305  Biso   1.000  O
  O27      1.0000 0.66075  0.18844  0.31072  Biso   1.000  O
  O28      1.0000 0.65873  0.70248  0.31558  Biso   1.000  O
  O29      1.0000 0.35315  0.18964  0.61806  Biso   1.000  O
  O30      1.0000 0.35203  0.18851  0.83660  Biso   1.000  O
  O31      1.0000 0.26335  0.09983  0.92610  Biso   1.000  O
  O32      1.0000 0.26447  0.10095  0.70756  Biso   1.000  O
  O33      1.0000 0.42170  0.53888  0.65699  Biso   1.000  O
  O34      1.0000 0.36133  0.59762  0.71888  Biso   1.000  O
  O35      1.0000 0.33617  0.67476  0.68308  Biso   1.000  O
  O36      1.0000 0.33494  0.55748  0.80798  Biso   1.000  O
  O37      1.0000 0.42293  0.53566  0.37676  Biso   1.000  O
  O38      1.0000 0.36499  0.59481  0.32083  Biso   1.000  O
  O39      1.0000 0.33781  0.67316  0.29484  Biso   1.000  O
  O40      1.0000 0.33497  0.55993  0.29302  Biso   1.000  O
  O41      1.0000 0.83962  0.55801  0.29525  Biso   1.000  O
  O42      1.0000 0.91411  0.03128  0.88716  Biso   1.000  O
  O43      1.0000 0.85537  0.09165  0.82527  Biso   1.000  O
  O44      1.0000 0.77821  0.11682  0.86107  Biso   1.000  O
  O45      1.0000 0.89551  0.11804  0.73618  Biso   1.000  O
  O46      1.0000 0.91733  0.03005  0.16740  Biso   1.000  O
  O47      1.0000 0.85818  0.08798  0.22332  Biso   1.000  O
  O48      1.0000 0.77981  0.11518  0.24931  Biso   1.000  O
  O49      1.0000 0.89306  0.11801  0.25113  Biso   1.000  O
  O50      1.0000 0.89497  0.61337  0.24891  Biso   1.000  O
  O51      1.0000 0.19480  0.75058  0.88716  Biso   1.000  O
  O52      1.0000 0.25517  0.69184  0.82527  Biso   1.000  O
  O53      1.0000 0.28033  0.61471  0.86107  Biso   1.000  O
  O54      1.0000 0.28156  0.73199  0.73618  Biso   1.000  O
  O55      1.0000 0.19357  0.75381  0.16740  Biso   1.000  O
  O56      1.0000 0.25150  0.69465  0.22332  Biso   1.000  O
  O57      1.0000 0.27869  0.61630  0.24931  Biso   1.000  O
  O58      1.0000 0.28153  0.72953  0.25113  Biso   1.000  O
  O59      1.0000 0.77688  0.73146  0.24891  Biso   1.000  O
  O60      1.0000 0.70239  0.25819  0.65699  Biso   1.000  O
  O61      1.0000 0.76113  0.19782  0.71888  Biso   1.000  O
  O62      1.0000 0.83829  0.17264  0.68308  Biso   1.000  O
  O63      1.0000 0.72098  0.17142  0.80798  Biso   1.000  O
  O64      1.0000 0.69917  0.25942  0.37676  Biso   1.000  O
  O65      1.0000 0.75832  0.20148  0.32083  Biso   1.000  O
  O66      1.0000 0.83669  0.17428  0.29484  Biso   1.000  O
  O67      1.0000 0.72344  0.17145  0.29302  Biso   1.000  O
  O68      1.0000 0.72152  0.67609  0.29525  Biso   1.000  O
  O69      1.0000 0.42089  0.25738  0.66387  Biso   1.000  O
  O70      1.0000 0.36305  0.19954  0.71666  Biso   1.000  O
  O71      1.0000 0.33555  0.17204  0.68076  Biso   1.000  O
  O72      1.0000 0.33433  0.17082  0.80919  Biso   1.000  O
  O73      1.0000 0.69734  0.53384  0.38485  Biso   1.000  O
  O74      1.0000 0.75973  0.59623  0.32073  Biso   1.000  O
  O75      1.0000 0.19561  0.03209  0.88029  Biso   1.000  O
  O76      1.0000 0.25344  0.08993  0.82750  Biso   1.000  O
  O77      1.0000 0.28094  0.11743  0.86340  Biso   1.000  O
  O78      1.0000 0.28216  0.11865  0.73496  Biso   1.000  O
  O79      1.0000 0.91915  0.75563  0.15931  Biso   1.000  O
  O80      1.0000 0.85677  0.69324  0.22342  Biso   1.000  O
  O81      1.0000 0.44131  0.45253  0.70341  Biso   1.000  O
  O82      1.0000 0.44344  0.58327  0.57184  Biso   1.000  O
  O83      1.0000 0.43991  0.45153  0.40356  Biso   1.000  O
  O84      1.0000 0.44285  0.58025  0.39951  Biso   1.000  O
  O85      1.0000 0.74386  0.45052  0.40235  Biso   1.000  O
  O86      1.0000 0.00046  0.01166  0.84075  Biso   1.000  O
  O87      1.0000 0.86972  0.00953  0.97232  Biso   1.000  O
  O88      1.0000 0.00146  0.01306  0.14060  Biso   1.000  O
  O89      1.0000 0.87274  0.01013  0.14464  Biso   1.000  O
  O90      1.0000 0.00247  0.70911  0.14181  Biso   1.000  O
  O91      1.0000 0.17519  0.83694  0.84075  Biso   1.000  O
  O92      1.0000 0.17306  0.70619  0.97232  Biso   1.000  O
  O93      1.0000 0.17658  0.83793  0.14060  Biso   1.000  O
  O94      1.0000 0.17365  0.70922  0.14464  Biso   1.000  O
  O95      1.0000 0.87264  0.83894  0.14181  Biso   1.000  O
  O96      1.0000 0.61603  0.27780  0.70341  Biso   1.000  O
  O97      1.0000 0.74678  0.27993  0.57184  Biso   1.000  O
  O98      1.0000 0.61504  0.27640  0.40356  Biso   1.000  O
  O99      1.0000 0.74376  0.27933  0.39951  Biso   1.000  O
  O100     1.0000 0.61403  0.58035  0.40235  Biso   1.000  O
  O101     1.0000 0.56124  0.39773  0.51956  Biso   1.000  O
  O102     1.0000 0.44233  0.27881  0.70270  Biso   1.000  O
  O103     1.0000 0.44001  0.27649  0.57993  Biso   1.000  O
  O104     1.0000 0.05526  0.89173  0.02460  Biso   1.000  O
  O105     1.0000 0.17417  0.01065  0.84145  Biso   1.000  O
  O106     1.0000 0.17649  0.01297  0.96423  Biso   1.000  O
