data_image0
_cell_length_a       18.3034
_cell_length_b       18.3034
_cell_length_c       18.3034
_cell_angle_alpha    60
_cell_angle_beta     60
_cell_angle_gamma    60

_symmetry_space_group_name_H-M    "P 1"
_symmetry_int_tables_number       1

loop_
  _symmetry_equiv_pos_as_xyz
  'x, y, z'

loop_
  _atom_site_label
  _atom_site_occupancy
  _atom_site_fract_x
  _atom_site_fract_y
  _atom_site_fract_z
  _atom_site_thermal_displace_type
  _atom_site_B_iso_or_equiv
  _atom_site_type_symbol
  Zn1      1.0000 0.29349  0.29350  0.29350  Biso   1.000  Zn
  Zn2      1.0000 0.29349  0.29350  0.11951  Biso   1.000  Zn
  Zn3      1.0000 0.29349  0.11951  0.29350  Biso   1.000  Zn
  Zn4      1.0000 0.11950  0.29350  0.29350  Biso   1.000  Zn
  Zn5      1.0000 0.70651  0.70650  0.70650  Biso   1.000  Zn
  Zn6      1.0000 0.70651  0.70650  0.88049  Biso   1.000  Zn
  Zn7      1.0000 0.88050  0.70650  0.70650  Biso   1.000  Zn
  Zn8      1.0000 0.70651  0.88049  0.70650  Biso   1.000  Zn
  H1       1.0000 0.45470  0.45470  0.15630  Biso   1.000  H
  H2       1.0000 0.45470  0.45470  0.93430  Biso   1.000  H
  H3       1.0000 0.15630  0.93430  0.45470  Biso   1.000  H
  H4       1.0000 0.93430  0.15630  0.45470  Biso   1.000  H
  H5       1.0000 0.45470  0.15630  0.93430  Biso   1.000  H
  H6       1.0000 0.45470  0.93430  0.15630  Biso   1.000  H
  H7       1.0000 0.15630  0.45470  0.45470  Biso   1.000  H
  H8       1.0000 0.93430  0.45470  0.45470  Biso   1.000  H
  H9       1.0000 0.45470  0.93430  0.45470  Biso   1.000  H
  H10      1.0000 0.45470  0.15630  0.45470  Biso   1.000  H
  H11      1.0000 0.15630  0.45470  0.93430  Biso   1.000  H
  H12      1.0000 0.93430  0.45470  0.15630  Biso   1.000  H
  H13      1.0000 0.54530  0.54530  0.84370  Biso   1.000  H
  H14      1.0000 0.54530  0.54530  0.06570  Biso   1.000  H
  H15      1.0000 0.06570  0.84370  0.54530  Biso   1.000  H
  H16      1.0000 0.84370  0.06570  0.54530  Biso   1.000  H
  H17      1.0000 0.84370  0.54530  0.06570  Biso   1.000  H
  H18      1.0000 0.06570  0.54530  0.84370  Biso   1.000  H
  H19      1.0000 0.54530  0.84370  0.54530  Biso   1.000  H
  H20      1.0000 0.54530  0.06570  0.54530  Biso   1.000  H
  H21      1.0000 0.06570  0.54530  0.54530  Biso   1.000  H
  H22      1.0000 0.84370  0.54530  0.54530  Biso   1.000  H
  H23      1.0000 0.54530  0.84370  0.06570  Biso   1.000  H
  H24      1.0000 0.54530  0.06570  0.84370  Biso   1.000  H
  C1       1.0000 0.47355  0.47355  0.09143  Biso   1.000  C
  C2       1.0000 0.47355  0.47355  0.96147  Biso   1.000  C
  C3       1.0000 0.09143  0.96147  0.47355  Biso   1.000  C
  C4       1.0000 0.96147  0.09143  0.47355  Biso   1.000  C
  C5       1.0000 0.47355  0.09143  0.96147  Biso   1.000  C
  C6       1.0000 0.47355  0.96147  0.09143  Biso   1.000  C
  C7       1.0000 0.09143  0.47355  0.47355  Biso   1.000  C
  C8       1.0000 0.96147  0.47355  0.47355  Biso   1.000  C
  C9       1.0000 0.47355  0.96147  0.47355  Biso   1.000  C
  C10      1.0000 0.47355  0.09143  0.47355  Biso   1.000  C
  C11      1.0000 0.09143  0.47355  0.96147  Biso   1.000  C
  C12      1.0000 0.96147  0.47355  0.09143  Biso   1.000  C
  C13      1.0000 0.52645  0.52645  0.90857  Biso   1.000  C
  C14      1.0000 0.52645  0.52645  0.03853  Biso   1.000  C
  C15      1.0000 0.03853  0.90857  0.52645  Biso   1.000  C
  C16      1.0000 0.90857  0.03853  0.52645  Biso   1.000  C
  C17      1.0000 0.90857  0.52645  0.03853  Biso   1.000  C
  C18      1.0000 0.03853  0.52645  0.90857  Biso   1.000  C
  C19      1.0000 0.52645  0.90857  0.52645  Biso   1.000  C
  C20      1.0000 0.52645  0.03853  0.52645  Biso   1.000  C
  C21      1.0000 0.03853  0.52645  0.52645  Biso   1.000  C
  C22      1.0000 0.90857  0.52645  0.52645  Biso   1.000  C
  C23      1.0000 0.52645  0.90857  0.03853  Biso   1.000  C
  C24      1.0000 0.52645  0.03853  0.90857  Biso   1.000  C
  C25      1.0000 0.38830  0.38830  0.11170  Biso   1.000  C
  C26      1.0000 0.44623  0.44623  0.05377  Biso   1.000  C
  C27      1.0000 0.11170  0.11170  0.38830  Biso   1.000  C
  C28      1.0000 0.05377  0.05377  0.44623  Biso   1.000  C
  C29      1.0000 0.38830  0.11170  0.11170  Biso   1.000  C
  C30      1.0000 0.44623  0.05377  0.05377  Biso   1.000  C
  C31      1.0000 0.11170  0.38830  0.38830  Biso   1.000  C
  C32      1.0000 0.05377  0.44623  0.44623  Biso   1.000  C
  C33      1.0000 0.38830  0.11170  0.38830  Biso   1.000  C
  C34      1.0000 0.44623  0.05377  0.44623  Biso   1.000  C
  C35      1.0000 0.11170  0.38830  0.11170  Biso   1.000  C
  C36      1.0000 0.05377  0.44623  0.05377  Biso   1.000  C
  C37      1.0000 0.61170  0.61170  0.88830  Biso   1.000  C
  C38      1.0000 0.55377  0.55377  0.94623  Biso   1.000  C
  C39      1.0000 0.88830  0.88830  0.61170  Biso   1.000  C
  C40      1.0000 0.94623  0.94623  0.55377  Biso   1.000  C
  C41      1.0000 0.88830  0.61170  0.88830  Biso   1.000  C
  C42      1.0000 0.94623  0.55377  0.94623  Biso   1.000  C
  C43      1.0000 0.61170  0.88830  0.61170  Biso   1.000  C
  C44      1.0000 0.55377  0.94623  0.55377  Biso   1.000  C
  C45      1.0000 0.88830  0.61170  0.61170  Biso   1.000  C
  C46      1.0000 0.94623  0.55377  0.55377  Biso   1.000  C
  C47      1.0000 0.61170  0.88830  0.88830  Biso   1.000  C
  C48      1.0000 0.55377  0.94623  0.94623  Biso   1.000  C
  O1       1.0000 0.36613  0.36613  0.19527  Biso   1.000  O
  O2       1.0000 0.36613  0.36613  0.07247  Biso   1.000  O
  O3       1.0000 0.19527  0.07247  0.36613  Biso   1.000  O
  O4       1.0000 0.07247  0.19527  0.36613  Biso   1.000  O
  O5       1.0000 0.36613  0.19527  0.07247  Biso   1.000  O
  O6       1.0000 0.36613  0.07247  0.19527  Biso   1.000  O
  O7       1.0000 0.19527  0.36613  0.36613  Biso   1.000  O
  O8       1.0000 0.07247  0.36613  0.36613  Biso   1.000  O
  O9       1.0000 0.36613  0.07247  0.36613  Biso   1.000  O
  O10      1.0000 0.36613  0.19527  0.36613  Biso   1.000  O
  O11      1.0000 0.19527  0.36613  0.07247  Biso   1.000  O
  O12      1.0000 0.07247  0.36613  0.19527  Biso   1.000  O
  O13      1.0000 0.63387  0.63387  0.80473  Biso   1.000  O
  O14      1.0000 0.63387  0.63387  0.92753  Biso   1.000  O
  O15      1.0000 0.92753  0.80473  0.63387  Biso   1.000  O
  O16      1.0000 0.80473  0.92753  0.63387  Biso   1.000  O
  O17      1.0000 0.80473  0.63387  0.92753  Biso   1.000  O
  O18      1.0000 0.92753  0.63387  0.80473  Biso   1.000  O
  O19      1.0000 0.63387  0.80473  0.63387  Biso   1.000  O
  O20      1.0000 0.63387  0.92753  0.63387  Biso   1.000  O
  O21      1.0000 0.92753  0.63387  0.63387  Biso   1.000  O
  O22      1.0000 0.80473  0.63387  0.63387  Biso   1.000  O
  O23      1.0000 0.63387  0.80473  0.92753  Biso   1.000  O
  O24      1.0000 0.63387  0.92753  0.80473  Biso   1.000  O
  O25      1.0000 0.25000  0.25000  0.25000  Biso   1.000  O
  O26      1.0000 0.75000  0.75000  0.75000  Biso   1.000  O
  Zn9      1.0000 0.76257  0.26020  0.37887  Biso   1.000  Zn
  Zn10     1.0000 0.57330  0.26020  0.56813  Biso   1.000  Zn
  Zn11     1.0000 0.57330  0.44946  0.37887  Biso   1.000  Zn
  Zn12     1.0000 0.57330  0.26020  0.37887  Biso   1.000  Zn
  Zn13     1.0000 0.14864  0.85482  0.80355  Biso   1.000  Zn
  Zn14     1.0000 0.97870  0.85482  0.97349  Biso   1.000  Zn
  Zn15     1.0000 0.14864  0.85482  0.97349  Biso   1.000  Zn
  Zn16     1.0000 0.14864  0.68488  0.97349  Biso   1.000  Zn
  H25      1.0000 0.00720  0.01603  0.62257  Biso   1.000  H
  H26      1.0000 0.79772  0.01603  0.83205  Biso   1.000  H
  H27      1.0000 0.30985  0.71338  0.13470  Biso   1.000  H
  H28      1.0000 0.30985  0.50390  0.13470  Biso   1.000  H
  H29      1.0000 0.30985  0.50390  0.83205  Biso   1.000  H
  H30      1.0000 0.30985  0.71338  0.62257  Biso   1.000  H
  H31      1.0000 0.00720  0.01603  0.13470  Biso   1.000  H
  H32      1.0000 0.79772  0.01603  0.13470  Biso   1.000  H
  H33      1.0000 0.79772  0.71338  0.13470  Biso   1.000  H
  H34      1.0000 0.00720  0.50390  0.13470  Biso   1.000  H
  H35      1.0000 0.30985  0.01603  0.83205  Biso   1.000  H
  H36      1.0000 0.30985  0.01603  0.62257  Biso   1.000  H
  C49      1.0000 0.89864  0.08203  0.59913  Biso   1.000  C
  C50      1.0000 0.94610  0.03241  0.65092  Biso   1.000  C
  C51      1.0000 0.77428  0.08203  0.72349  Biso   1.000  C
  C52      1.0000 0.82606  0.03241  0.77095  Biso   1.000  C
  C53      1.0000 0.37585  0.60482  0.20070  Biso   1.000  C
  C54      1.0000 0.32622  0.65228  0.15108  Biso   1.000  C
  C55      1.0000 0.37585  0.48046  0.20070  Biso   1.000  C
  C56      1.0000 0.32622  0.53224  0.15108  Biso   1.000  C
  C57      1.0000 0.37585  0.48046  0.72349  Biso   1.000  C
  C58      1.0000 0.32622  0.53224  0.77095  Biso   1.000  C
  C59      1.0000 0.37585  0.60482  0.59913  Biso   1.000  C
  C60      1.0000 0.32622  0.65228  0.65092  Biso   1.000  C
  C61      1.0000 0.89864  0.08203  0.20070  Biso   1.000  C
  C62      1.0000 0.94610  0.03241  0.15108  Biso   1.000  C
  C63      1.0000 0.77428  0.08203  0.20070  Biso   1.000  C
  C64      1.0000 0.82606  0.03241  0.15108  Biso   1.000  C
  C65      1.0000 0.77428  0.60482  0.20070  Biso   1.000  C
  C66      1.0000 0.82606  0.65228  0.15108  Biso   1.000  C
  C67      1.0000 0.89864  0.48046  0.20070  Biso   1.000  C
  C68      1.0000 0.94610  0.53224  0.15108  Biso   1.000  C
  C69      1.0000 0.37585  0.08203  0.72349  Biso   1.000  C
  C70      1.0000 0.32622  0.03241  0.77095  Biso   1.000  C
  C71      1.0000 0.37585  0.08203  0.59913  Biso   1.000  C
  C72      1.0000 0.32622  0.03241  0.65092  Biso   1.000  C
  C73      1.0000 0.74967  0.16882  0.57452  Biso   1.000  C
  C74      1.0000 0.81243  0.10606  0.63728  Biso   1.000  C
  C75      1.0000 0.96729  0.95120  0.79214  Biso   1.000  C
  C76      1.0000 0.91776  0.00073  0.74261  Biso   1.000  C
  C77      1.0000 0.46264  0.45585  0.28749  Biso   1.000  C
  C78      1.0000 0.39988  0.51861  0.22473  Biso   1.000  C
  C79      1.0000 0.24502  0.67347  0.06987  Biso   1.000  C
  C80      1.0000 0.29455  0.62394  0.11940  Biso   1.000  C
  C81      1.0000 0.46264  0.45585  0.57452  Biso   1.000  C
  C82      1.0000 0.39988  0.51861  0.63728  Biso   1.000  C
  C83      1.0000 0.24502  0.67347  0.79214  Biso   1.000  C
  C84      1.0000 0.29455  0.62394  0.74261  Biso   1.000  C
  C85      1.0000 0.74967  0.16882  0.28749  Biso   1.000  C
  C86      1.0000 0.81243  0.10606  0.22473  Biso   1.000  C
  C87      1.0000 0.96729  0.95120  0.06987  Biso   1.000  C
  C88      1.0000 0.91776  0.00073  0.11940  Biso   1.000  C
  C89      1.0000 0.74967  0.45585  0.28749  Biso   1.000  C
  C90      1.0000 0.81243  0.51861  0.22473  Biso   1.000  C
  C91      1.0000 0.96729  0.67347  0.06987  Biso   1.000  C
  C92      1.0000 0.91776  0.62394  0.11940  Biso   1.000  C
  C93      1.0000 0.46264  0.16882  0.57452  Biso   1.000  C
  C94      1.0000 0.39988  0.10606  0.63728  Biso   1.000  C
  C95      1.0000 0.24502  0.95120  0.79214  Biso   1.000  C
  C96      1.0000 0.29455  0.00073  0.74261  Biso   1.000  C
  O27      1.0000 0.10615  0.81233  0.93101  Biso   1.000  O
  O28      1.0000 0.63509  0.30269  0.42136  Biso   1.000  O
  O29      1.0000 0.78772  0.19040  0.49332  Biso   1.000  O
  O30      1.0000 0.05094  0.92678  0.75732  Biso   1.000  O
  O31      1.0000 0.66846  0.19040  0.61257  Biso   1.000  O
  O32      1.0000 0.93247  0.92678  0.87579  Biso   1.000  O
  O33      1.0000 0.48422  0.49390  0.30907  Biso   1.000  O
  O34      1.0000 0.22060  0.75712  0.04545  Biso   1.000  O
  O35      1.0000 0.48422  0.37464  0.30907  Biso   1.000  O
  O36      1.0000 0.22060  0.63865  0.04545  Biso   1.000  O
  O37      1.0000 0.48422  0.37464  0.61257  Biso   1.000  O
  O38      1.0000 0.22060  0.63865  0.87579  Biso   1.000  O
  O39      1.0000 0.48422  0.49390  0.49332  Biso   1.000  O
  O40      1.0000 0.22060  0.75712  0.75732  Biso   1.000  O
  O41      1.0000 0.78772  0.19040  0.30907  Biso   1.000  O
  O42      1.0000 0.05094  0.92678  0.04545  Biso   1.000  O
  O43      1.0000 0.66846  0.19040  0.30907  Biso   1.000  O
  O44      1.0000 0.93247  0.92678  0.04545  Biso   1.000  O
  O45      1.0000 0.66846  0.49390  0.30907  Biso   1.000  O
  O46      1.0000 0.93247  0.75712  0.04545  Biso   1.000  O
  O47      1.0000 0.78772  0.37464  0.30907  Biso   1.000  O
  O48      1.0000 0.05094  0.63865  0.04545  Biso   1.000  O
  O49      1.0000 0.48422  0.19040  0.61257  Biso   1.000  O
  O50      1.0000 0.22060  0.92678  0.87579  Biso   1.000  O
  O51      1.0000 0.48422  0.19040  0.49332  Biso   1.000  O
  O52      1.0000 0.22060  0.92678  0.75732  Biso   1.000  O
