data_image0
_cell_length_a       18.3034
_cell_length_b       18.3034
_cell_length_c       18.3034
_cell_angle_alpha    60
_cell_angle_beta     60
_cell_angle_gamma    60

_symmetry_space_group_name_H-M    "P 1"
_symmetry_int_tables_number       1

loop_
  _symmetry_equiv_pos_as_xyz
  'x, y, z'

loop_
  _atom_site_label
  _atom_site_occupancy
  _atom_site_fract_x
  _atom_site_fract_y
  _atom_site_fract_z
  _atom_site_thermal_displace_type
  _atom_site_B_iso_or_equiv
  _atom_site_type_symbol
  Zn1      1.0000 0.29349  0.29350  0.29350  Biso   1.000  Zn
  Zn2      1.0000 0.29349  0.29350  0.11951  Biso   1.000  Zn
  Zn3      1.0000 0.29349  0.11951  0.29350  Biso   1.000  Zn
  Zn4      1.0000 0.11950  0.29350  0.29350  Biso   1.000  Zn
  Zn5      1.0000 0.70651  0.70650  0.70650  Biso   1.000  Zn
  Zn6      1.0000 0.70651  0.70650  0.88049  Biso   1.000  Zn
  Zn7      1.0000 0.88050  0.70650  0.70650  Biso   1.000  Zn
  Zn8      1.0000 0.70651  0.88049  0.70650  Biso   1.000  Zn
  H1       1.0000 0.45470  0.45470  0.15630  Biso   1.000  H
  H2       1.0000 0.45470  0.45470  0.93430  Biso   1.000  H
  H3       1.0000 0.15630  0.93430  0.45470  Biso   1.000  H
  H4       1.0000 0.93430  0.15630  0.45470  Biso   1.000  H
  H5       1.0000 0.45470  0.15630  0.93430  Biso   1.000  H
  H6       1.0000 0.45470  0.93430  0.15630  Biso   1.000  H
  H7       1.0000 0.15630  0.45470  0.45470  Biso   1.000  H
  H8       1.0000 0.93430  0.45470  0.45470  Biso   1.000  H
  H9       1.0000 0.45470  0.93430  0.45470  Biso   1.000  H
  H10      1.0000 0.45470  0.15630  0.45470  Biso   1.000  H
  H11      1.0000 0.15630  0.45470  0.93430  Biso   1.000  H
  H12      1.0000 0.93430  0.45470  0.15630  Biso   1.000  H
  H13      1.0000 0.54530  0.54530  0.84370  Biso   1.000  H
  H14      1.0000 0.54530  0.54530  0.06570  Biso   1.000  H
  H15      1.0000 0.06570  0.84370  0.54530  Biso   1.000  H
  H16      1.0000 0.84370  0.06570  0.54530  Biso   1.000  H
  H17      1.0000 0.84370  0.54530  0.06570  Biso   1.000  H
  H18      1.0000 0.06570  0.54530  0.84370  Biso   1.000  H
  H19      1.0000 0.54530  0.84370  0.54530  Biso   1.000  H
  H20      1.0000 0.54530  0.06570  0.54530  Biso   1.000  H
  H21      1.0000 0.06570  0.54530  0.54530  Biso   1.000  H
  H22      1.0000 0.84370  0.54530  0.54530  Biso   1.000  H
  H23      1.0000 0.54530  0.84370  0.06570  Biso   1.000  H
  H24      1.0000 0.54530  0.06570  0.84370  Biso   1.000  H
  C1       1.0000 0.47355  0.47355  0.09143  Biso   1.000  C
  C2       1.0000 0.47355  0.47355  0.96147  Biso   1.000  C
  C3       1.0000 0.09143  0.96147  0.47355  Biso   1.000  C
  C4       1.0000 0.96147  0.09143  0.47355  Biso   1.000  C
  C5       1.0000 0.47355  0.09143  0.96147  Biso   1.000  C
  C6       1.0000 0.47355  0.96147  0.09143  Biso   1.000  C
  C7       1.0000 0.09143  0.47355  0.47355  Biso   1.000  C
  C8       1.0000 0.96147  0.47355  0.47355  Biso   1.000  C
  C9       1.0000 0.47355  0.96147  0.47355  Biso   1.000  C
  C10      1.0000 0.47355  0.09143  0.47355  Biso   1.000  C
  C11      1.0000 0.09143  0.47355  0.96147  Biso   1.000  C
  C12      1.0000 0.96147  0.47355  0.09143  Biso   1.000  C
  C13      1.0000 0.52645  0.52645  0.90857  Biso   1.000  C
  C14      1.0000 0.52645  0.52645  0.03853  Biso   1.000  C
  C15      1.0000 0.03853  0.90857  0.52645  Biso   1.000  C
  C16      1.0000 0.90857  0.03853  0.52645  Biso   1.000  C
  C17      1.0000 0.90857  0.52645  0.03853  Biso   1.000  C
  C18      1.0000 0.03853  0.52645  0.90857  Biso   1.000  C
  C19      1.0000 0.52645  0.90857  0.52645  Biso   1.000  C
  C20      1.0000 0.52645  0.03853  0.52645  Biso   1.000  C
  C21      1.0000 0.03853  0.52645  0.52645  Biso   1.000  C
  C22      1.0000 0.90857  0.52645  0.52645  Biso   1.000  C
  C23      1.0000 0.52645  0.90857  0.03853  Biso   1.000  C
  C24      1.0000 0.52645  0.03853  0.90857  Biso   1.000  C
  C25      1.0000 0.38830  0.38830  0.11170  Biso   1.000  C
  C26      1.0000 0.44623  0.44623  0.05377  Biso   1.000  C
  C27      1.0000 0.11170  0.11170  0.38830  Biso   1.000  C
  C28      1.0000 0.05377  0.05377  0.44623  Biso   1.000  C
  C29      1.0000 0.38830  0.11170  0.11170  Biso   1.000  C
  C30      1.0000 0.44623  0.05377  0.05377  Biso   1.000  C
  C31      1.0000 0.11170  0.38830  0.38830  Biso   1.000  C
  C32      1.0000 0.05377  0.44623  0.44623  Biso   1.000  C
  C33      1.0000 0.38830  0.11170  0.38830  Biso   1.000  C
  C34      1.0000 0.44623  0.05377  0.44623  Biso   1.000  C
  C35      1.0000 0.11170  0.38830  0.11170  Biso   1.000  C
  C36      1.0000 0.05377  0.44623  0.05377  Biso   1.000  C
  C37      1.0000 0.61170  0.61170  0.88830  Biso   1.000  C
  C38      1.0000 0.55377  0.55377  0.94623  Biso   1.000  C
  C39      1.0000 0.88830  0.88830  0.61170  Biso   1.000  C
  C40      1.0000 0.94623  0.94623  0.55377  Biso   1.000  C
  C41      1.0000 0.88830  0.61170  0.88830  Biso   1.000  C
  C42      1.0000 0.94623  0.55377  0.94623  Biso   1.000  C
  C43      1.0000 0.61170  0.88830  0.61170  Biso   1.000  C
  C44      1.0000 0.55377  0.94623  0.55377  Biso   1.000  C
  C45      1.0000 0.88830  0.61170  0.61170  Biso   1.000  C
  C46      1.0000 0.94623  0.55377  0.55377  Biso   1.000  C
  C47      1.0000 0.61170  0.88830  0.88830  Biso   1.000  C
  C48      1.0000 0.55377  0.94623  0.94623  Biso   1.000  C
  O1       1.0000 0.36613  0.36613  0.19527  Biso   1.000  O
  O2       1.0000 0.36613  0.36613  0.07247  Biso   1.000  O
  O3       1.0000 0.19527  0.07247  0.36613  Biso   1.000  O
  O4       1.0000 0.07247  0.19527  0.36613  Biso   1.000  O
  O5       1.0000 0.36613  0.19527  0.07247  Biso   1.000  O
  O6       1.0000 0.36613  0.07247  0.19527  Biso   1.000  O
  O7       1.0000 0.19527  0.36613  0.36613  Biso   1.000  O
  O8       1.0000 0.07247  0.36613  0.36613  Biso   1.000  O
  O9       1.0000 0.36613  0.07247  0.36613  Biso   1.000  O
  O10      1.0000 0.36613  0.19527  0.36613  Biso   1.000  O
  O11      1.0000 0.19527  0.36613  0.07247  Biso   1.000  O
  O12      1.0000 0.07247  0.36613  0.19527  Biso   1.000  O
  O13      1.0000 0.63387  0.63387  0.80473  Biso   1.000  O
  O14      1.0000 0.63387  0.63387  0.92753  Biso   1.000  O
  O15      1.0000 0.92753  0.80473  0.63387  Biso   1.000  O
  O16      1.0000 0.80473  0.92753  0.63387  Biso   1.000  O
  O17      1.0000 0.80473  0.63387  0.92753  Biso   1.000  O
  O18      1.0000 0.92753  0.63387  0.80473  Biso   1.000  O
  O19      1.0000 0.63387  0.80473  0.63387  Biso   1.000  O
  O20      1.0000 0.63387  0.92753  0.63387  Biso   1.000  O
  O21      1.0000 0.92753  0.63387  0.63387  Biso   1.000  O
  O22      1.0000 0.80473  0.63387  0.63387  Biso   1.000  O
  O23      1.0000 0.63387  0.80473  0.92753  Biso   1.000  O
  O24      1.0000 0.63387  0.92753  0.80473  Biso   1.000  O
  O25      1.0000 0.25000  0.25000  0.25000  Biso   1.000  O
  O26      1.0000 0.75000  0.75000  0.75000  Biso   1.000  O
  Zn9      1.0000 0.49998  0.51743  0.33333  Biso   1.000  Zn
  Zn10     1.0000 0.49998  0.51743  0.50632  Biso   1.000  Zn
  Zn11     1.0000 0.32700  0.51743  0.50632  Biso   1.000  Zn
  Zn12     1.0000 0.49998  0.34444  0.50632  Biso   1.000  Zn
  Zn13     1.0000 0.90982  0.92725  0.08913  Biso   1.000  Zn
  Zn14     1.0000 0.90982  0.92725  0.91614  Biso   1.000  Zn
  Zn15     1.0000 0.90982  0.10024  0.91614  Biso   1.000  Zn
  Zn16     1.0000 0.08281  0.92725  0.91614  Biso   1.000  Zn
  H25      1.0000 0.66123  0.67866  0.14442  Biso   1.000  H
  H26      1.0000 0.66123  0.67866  0.36540  Biso   1.000  H
  H27      1.0000 0.13809  0.37650  0.66755  Biso   1.000  H
  H28      1.0000 0.35907  0.15553  0.66755  Biso   1.000  H
  H29      1.0000 0.66123  0.15553  0.36540  Biso   1.000  H
  H30      1.0000 0.66123  0.37650  0.14442  Biso   1.000  H
  H31      1.0000 0.13809  0.67866  0.66755  Biso   1.000  H
  H32      1.0000 0.35907  0.67866  0.66755  Biso   1.000  H
  H33      1.0000 0.66123  0.37650  0.66755  Biso   1.000  H
  H34      1.0000 0.66123  0.15553  0.66755  Biso   1.000  H
  H35      1.0000 0.13809  0.67866  0.36540  Biso   1.000  H
  H36      1.0000 0.35907  0.67866  0.14442  Biso   1.000  H
  H37      1.0000 0.74858  0.76602  0.27804  Biso   1.000  H
  H38      1.0000 0.74858  0.76602  0.05707  Biso   1.000  H
  H39      1.0000 0.05074  0.28915  0.75491  Biso   1.000  H
  H40      1.0000 0.27172  0.06817  0.75491  Biso   1.000  H
  H41      1.0000 0.27172  0.76602  0.05707  Biso   1.000  H
  H42      1.0000 0.05074  0.76602  0.27804  Biso   1.000  H
  H43      1.0000 0.74858  0.28915  0.75491  Biso   1.000  H
  H44      1.0000 0.74858  0.06817  0.75491  Biso   1.000  H
  H45      1.0000 0.05074  0.76602  0.75491  Biso   1.000  H
  H46      1.0000 0.27172  0.76602  0.75491  Biso   1.000  H
  H47      1.0000 0.74858  0.28915  0.05707  Biso   1.000  H
  H48      1.0000 0.74858  0.06817  0.27804  Biso   1.000  H
  C49      1.0000 0.67870  0.69613  0.17102  Biso   1.000  C
  C50      1.0000 0.67870  0.69613  0.30385  Biso   1.000  C
  C51      1.0000 0.16469  0.31496  0.68503  Biso   1.000  C
  C52      1.0000 0.29752  0.18213  0.68503  Biso   1.000  C
  C53      1.0000 0.67870  0.18213  0.30385  Biso   1.000  C
  C54      1.0000 0.67870  0.31496  0.17102  Biso   1.000  C
  C55      1.0000 0.16469  0.69613  0.68503  Biso   1.000  C
  C56      1.0000 0.29752  0.69613  0.68503  Biso   1.000  C
  C57      1.0000 0.67870  0.31496  0.68503  Biso   1.000  C
  C58      1.0000 0.67870  0.18213  0.68503  Biso   1.000  C
  C59      1.0000 0.16469  0.69613  0.30385  Biso   1.000  C
  C60      1.0000 0.29752  0.69613  0.17102  Biso   1.000  C
  C61      1.0000 0.73111  0.74854  0.25144  Biso   1.000  C
  C62      1.0000 0.73111  0.74854  0.11861  Biso   1.000  C
  C63      1.0000 0.11228  0.26255  0.73744  Biso   1.000  C
  C64      1.0000 0.24511  0.12972  0.73744  Biso   1.000  C
  C65      1.0000 0.24511  0.74854  0.11861  Biso   1.000  C
  C66      1.0000 0.11228  0.74854  0.25144  Biso   1.000  C
  C67      1.0000 0.73111  0.26255  0.73744  Biso   1.000  C
  C68      1.0000 0.73111  0.12972  0.73744  Biso   1.000  C
  C69      1.0000 0.11228  0.74854  0.73744  Biso   1.000  C
  C70      1.0000 0.24511  0.74854  0.73744  Biso   1.000  C
  C71      1.0000 0.73111  0.26255  0.11861  Biso   1.000  C
  C72      1.0000 0.73111  0.12972  0.25144  Biso   1.000  C
  C73      1.0000 0.59432  0.61176  0.32549  Biso   1.000  C
  C74      1.0000 0.65160  0.66903  0.26822  Biso   1.000  C
  C75      1.0000 0.31916  0.33660  0.60065  Biso   1.000  C
  C76      1.0000 0.26189  0.27932  0.65793  Biso   1.000  C
  C77      1.0000 0.59432  0.33660  0.32549  Biso   1.000  C
  C78      1.0000 0.65160  0.27932  0.26822  Biso   1.000  C
  C79      1.0000 0.31916  0.61176  0.60065  Biso   1.000  C
  C80      1.0000 0.26189  0.66903  0.65793  Biso   1.000  C
  C81      1.0000 0.59432  0.33660  0.60065  Biso   1.000  C
  C82      1.0000 0.65160  0.27932  0.65793  Biso   1.000  C
  C83      1.0000 0.31916  0.61176  0.32549  Biso   1.000  C
  C84      1.0000 0.26189  0.66903  0.26822  Biso   1.000  C
  C85      1.0000 0.81548  0.83292  0.09697  Biso   1.000  C
  C86      1.0000 0.75821  0.77564  0.15425  Biso   1.000  C
  C87      1.0000 0.09064  0.10808  0.82181  Biso   1.000  C
  C88      1.0000 0.14792  0.16535  0.76454  Biso   1.000  C
  C89      1.0000 0.09064  0.83292  0.09697  Biso   1.000  C
  C90      1.0000 0.14792  0.77564  0.15425  Biso   1.000  C
  C91      1.0000 0.81548  0.10808  0.82181  Biso   1.000  C
  C92      1.0000 0.75821  0.16535  0.76454  Biso   1.000  C
  C93      1.0000 0.09064  0.83292  0.82181  Biso   1.000  C
  C94      1.0000 0.14792  0.77564  0.76454  Biso   1.000  C
  C95      1.0000 0.81548  0.10808  0.09697  Biso   1.000  C
  C96      1.0000 0.75821  0.16535  0.15425  Biso   1.000  C
  O27      1.0000 0.45674  0.47418  0.46307  Biso   1.000  O
  O28      1.0000 0.95306  0.97050  0.95939  Biso   1.000  O
  O29      1.0000 0.57194  0.58938  0.28760  Biso   1.000  O
  O30      1.0000 0.57194  0.58938  0.40815  Biso   1.000  O
  O31      1.0000 0.28127  0.41926  0.57827  Biso   1.000  O
  O32      1.0000 0.40182  0.29871  0.57827  Biso   1.000  O
  O33      1.0000 0.57194  0.29871  0.40815  Biso   1.000  O
  O34      1.0000 0.57194  0.41926  0.28760  Biso   1.000  O
  O35      1.0000 0.28127  0.58938  0.57827  Biso   1.000  O
  O36      1.0000 0.40182  0.58938  0.57827  Biso   1.000  O
  O37      1.0000 0.57194  0.41926  0.57827  Biso   1.000  O
  O38      1.0000 0.57194  0.29871  0.57827  Biso   1.000  O
  O39      1.0000 0.28127  0.58938  0.40815  Biso   1.000  O
  O40      1.0000 0.40182  0.58938  0.28760  Biso   1.000  O
  O41      1.0000 0.83787  0.85530  0.13486  Biso   1.000  O
  O42      1.0000 0.83787  0.85530  0.01431  Biso   1.000  O
  O43      1.0000 0.00798  0.14597  0.84419  Biso   1.000  O
  O44      1.0000 0.12853  0.02542  0.84419  Biso   1.000  O
  O45      1.0000 0.12853  0.85530  0.01431  Biso   1.000  O
  O46      1.0000 0.00798  0.85530  0.13486  Biso   1.000  O
  O47      1.0000 0.83787  0.14597  0.84419  Biso   1.000  O
  O48      1.0000 0.83787  0.02542  0.84419  Biso   1.000  O
  O49      1.0000 0.00798  0.85530  0.84419  Biso   1.000  O
  O50      1.0000 0.12853  0.85530  0.84419  Biso   1.000  O
  O51      1.0000 0.83787  0.14597  0.01431  Biso   1.000  O
  O52      1.0000 0.83787  0.02542  0.13486  Biso   1.000  O
