data_image0
_cell_length_a       18.1507
_cell_length_b       18.1507
_cell_length_c       18.1507
_cell_angle_alpha    60
_cell_angle_beta     60
_cell_angle_gamma    60

_symmetry_space_group_name_H-M    "P 1"
_symmetry_int_tables_number       1

loop_
  _symmetry_equiv_pos_as_xyz
  'x, y, z'

loop_
  _atom_site_label
  _atom_site_occupancy
  _atom_site_fract_x
  _atom_site_fract_y
  _atom_site_fract_z
  _atom_site_thermal_displace_type
  _atom_site_B_iso_or_equiv
  _atom_site_type_symbol
  Zn1      1.0000 0.29350  0.29350  0.29350  Biso   1.000  Zn
  Zn2      1.0000 0.29350  0.29350  0.11950  Biso   1.000  Zn
  Zn3      1.0000 0.29350  0.11950  0.29350  Biso   1.000  Zn
  Zn4      1.0000 0.11950  0.29350  0.29350  Biso   1.000  Zn
  Zn5      1.0000 0.70650  0.70650  0.70650  Biso   1.000  Zn
  Zn6      1.0000 0.70650  0.70650  0.88050  Biso   1.000  Zn
  Zn7      1.0000 0.88050  0.70650  0.70650  Biso   1.000  Zn
  Zn8      1.0000 0.70650  0.88050  0.70650  Biso   1.000  Zn
  H1       1.0000 0.45480  0.45480  0.15700  Biso   1.000  H
  H2       1.0000 0.45480  0.45480  0.93340  Biso   1.000  H
  H3       1.0000 0.15700  0.93340  0.45480  Biso   1.000  H
  H4       1.0000 0.93340  0.15700  0.45480  Biso   1.000  H
  H5       1.0000 0.45480  0.15700  0.93340  Biso   1.000  H
  H6       1.0000 0.45480  0.93340  0.15700  Biso   1.000  H
  H7       1.0000 0.15700  0.45480  0.45480  Biso   1.000  H
  H8       1.0000 0.93340  0.45480  0.45480  Biso   1.000  H
  H9       1.0000 0.45480  0.93340  0.45480  Biso   1.000  H
  H10      1.0000 0.45480  0.15700  0.45480  Biso   1.000  H
  H11      1.0000 0.15700  0.45480  0.93340  Biso   1.000  H
  H12      1.0000 0.93340  0.45480  0.15700  Biso   1.000  H
  H13      1.0000 0.54520  0.54520  0.84300  Biso   1.000  H
  H14      1.0000 0.54520  0.54520  0.06660  Biso   1.000  H
  H15      1.0000 0.06660  0.84300  0.54520  Biso   1.000  H
  H16      1.0000 0.84300  0.06660  0.54520  Biso   1.000  H
  H17      1.0000 0.84300  0.54520  0.06660  Biso   1.000  H
  H18      1.0000 0.06660  0.54520  0.84300  Biso   1.000  H
  H19      1.0000 0.54520  0.84300  0.54520  Biso   1.000  H
  H20      1.0000 0.54520  0.06660  0.54520  Biso   1.000  H
  H21      1.0000 0.06660  0.54520  0.54520  Biso   1.000  H
  H22      1.0000 0.84300  0.54520  0.54520  Biso   1.000  H
  H23      1.0000 0.54520  0.84300  0.06660  Biso   1.000  H
  H24      1.0000 0.54520  0.06660  0.84300  Biso   1.000  H
  C1       1.0000 0.47370  0.47370  0.09250  Biso   1.000  C
  C2       1.0000 0.47370  0.47370  0.96010  Biso   1.000  C
  C3       1.0000 0.09250  0.96010  0.47370  Biso   1.000  C
  C4       1.0000 0.96010  0.09250  0.47370  Biso   1.000  C
  C5       1.0000 0.47370  0.09250  0.96010  Biso   1.000  C
  C6       1.0000 0.47370  0.96010  0.09250  Biso   1.000  C
  C7       1.0000 0.09250  0.47370  0.47370  Biso   1.000  C
  C8       1.0000 0.96010  0.47370  0.47370  Biso   1.000  C
  C9       1.0000 0.47370  0.96010  0.47370  Biso   1.000  C
  C10      1.0000 0.47370  0.09250  0.47370  Biso   1.000  C
  C11      1.0000 0.09250  0.47370  0.96010  Biso   1.000  C
  C12      1.0000 0.96010  0.47370  0.09250  Biso   1.000  C
  C13      1.0000 0.52630  0.52630  0.90750  Biso   1.000  C
  C14      1.0000 0.52630  0.52630  0.03990  Biso   1.000  C
  C15      1.0000 0.03990  0.90750  0.52630  Biso   1.000  C
  C16      1.0000 0.90750  0.03990  0.52630  Biso   1.000  C
  C17      1.0000 0.90750  0.52630  0.03990  Biso   1.000  C
  C18      1.0000 0.03990  0.52630  0.90750  Biso   1.000  C
  C19      1.0000 0.52630  0.90750  0.52630  Biso   1.000  C
  C20      1.0000 0.52630  0.03990  0.52630  Biso   1.000  C
  C21      1.0000 0.03990  0.52630  0.52630  Biso   1.000  C
  C22      1.0000 0.90750  0.52630  0.52630  Biso   1.000  C
  C23      1.0000 0.52630  0.90750  0.03990  Biso   1.000  C
  C24      1.0000 0.52630  0.03990  0.90750  Biso   1.000  C
  C25      1.0000 0.38950  0.38950  0.11050  Biso   1.000  C
  C26      1.0000 0.44620  0.44620  0.05380  Biso   1.000  C
  C27      1.0000 0.11050  0.11050  0.38950  Biso   1.000  C
  C28      1.0000 0.05380  0.05380  0.44620  Biso   1.000  C
  C29      1.0000 0.38950  0.11050  0.11050  Biso   1.000  C
  C30      1.0000 0.44620  0.05380  0.05380  Biso   1.000  C
  C31      1.0000 0.11050  0.38950  0.38950  Biso   1.000  C
  C32      1.0000 0.05380  0.44620  0.44620  Biso   1.000  C
  C33      1.0000 0.38950  0.11050  0.38950  Biso   1.000  C
  C34      1.0000 0.44620  0.05380  0.44620  Biso   1.000  C
  C35      1.0000 0.11050  0.38950  0.11050  Biso   1.000  C
  C36      1.0000 0.05380  0.44620  0.05380  Biso   1.000  C
  C37      1.0000 0.61050  0.61050  0.88950  Biso   1.000  C
  C38      1.0000 0.55380  0.55380  0.94620  Biso   1.000  C
  C39      1.0000 0.88950  0.88950  0.61050  Biso   1.000  C
  C40      1.0000 0.94620  0.94620  0.55380  Biso   1.000  C
  C41      1.0000 0.88950  0.61050  0.88950  Biso   1.000  C
  C42      1.0000 0.94620  0.55380  0.94620  Biso   1.000  C
  C43      1.0000 0.61050  0.88950  0.61050  Biso   1.000  C
  C44      1.0000 0.55380  0.94620  0.55380  Biso   1.000  C
  C45      1.0000 0.88950  0.61050  0.61050  Biso   1.000  C
  C46      1.0000 0.94620  0.55380  0.55380  Biso   1.000  C
  C47      1.0000 0.61050  0.88950  0.88950  Biso   1.000  C
  C48      1.0000 0.55380  0.94620  0.94620  Biso   1.000  C
  O1       1.0000 0.25000  0.25000  0.25000  Biso   1.000  O
  O2       1.0000 0.75000  0.75000  0.75000  Biso   1.000  O
  O3       1.0000 0.36610  0.36610  0.19750  Biso   1.000  O
  O4       1.0000 0.36610  0.36610  0.07030  Biso   1.000  O
  O5       1.0000 0.19750  0.07030  0.36610  Biso   1.000  O
  O6       1.0000 0.07030  0.19750  0.36610  Biso   1.000  O
  O7       1.0000 0.36610  0.19750  0.07030  Biso   1.000  O
  O8       1.0000 0.36610  0.07030  0.19750  Biso   1.000  O
  O9       1.0000 0.19750  0.36610  0.36610  Biso   1.000  O
  O10      1.0000 0.07030  0.36610  0.36610  Biso   1.000  O
  O11      1.0000 0.36610  0.07030  0.36610  Biso   1.000  O
  O12      1.0000 0.36610  0.19750  0.36610  Biso   1.000  O
  O13      1.0000 0.19750  0.36610  0.07030  Biso   1.000  O
  O14      1.0000 0.07030  0.36610  0.19750  Biso   1.000  O
  O15      1.0000 0.63390  0.63390  0.80250  Biso   1.000  O
  O16      1.0000 0.63390  0.63390  0.92970  Biso   1.000  O
  O17      1.0000 0.92970  0.80250  0.63390  Biso   1.000  O
  O18      1.0000 0.80250  0.92970  0.63390  Biso   1.000  O
  O19      1.0000 0.80250  0.63390  0.92970  Biso   1.000  O
  O20      1.0000 0.92970  0.63390  0.80250  Biso   1.000  O
  O21      1.0000 0.63390  0.80250  0.63390  Biso   1.000  O
  O22      1.0000 0.63390  0.92970  0.63390  Biso   1.000  O
  O23      1.0000 0.92970  0.63390  0.63390  Biso   1.000  O
  O24      1.0000 0.80250  0.63390  0.63390  Biso   1.000  O
  O25      1.0000 0.63390  0.80250  0.92970  Biso   1.000  O
  O26      1.0000 0.63390  0.92970  0.80250  Biso   1.000  O
  Zn9      1.0000 1.00000  1.00000  0.00000  Biso   1.000  Zn
  Zn10     1.0000 0.58423  0.58423  0.41019  Biso   1.000  Zn
  Zn11     1.0000 0.75846  0.41000  0.41019  Biso   1.000  Zn
  Zn12     1.0000 0.17423  0.82577  0.00000  Biso   1.000  Zn
  Zn13     1.0000 0.17431  0.00008  0.82555  Biso   1.000  Zn
  Zn14     1.0000 0.17405  0.99982  0.00013  Biso   1.000  Zn
  Zn15     1.0000 0.58415  0.40992  0.58464  Biso   1.000  Zn
  Zn16     1.0000 0.58441  0.41018  0.41006  Biso   1.000  Zn
  H25      1.0000 0.03592  0.15724  0.63637  Biso   1.000  H
  H26      1.0000 0.80966  0.15569  0.86314  Biso   1.000  H
  H27      1.0000 0.80765  0.86310  0.15487  Biso   1.000  H
  H28      1.0000 0.42699  0.54832  0.77382  Biso   1.000  H
  H29      1.0000 0.42854  0.77457  0.54705  Biso   1.000  H
  H30      1.0000 0.72113  0.77658  0.25532  Biso   1.000  H
  H31      1.0000 0.72255  0.25276  0.77382  Biso   1.000  H
  H32      1.0000 0.94880  0.25431  0.54705  Biso   1.000  H
  H33      1.0000 0.95081  0.54690  0.25532  Biso   1.000  H
  H34      1.0000 0.33147  0.86168  0.63637  Biso   1.000  H
  H35      1.0000 0.32992  0.63543  0.86314  Biso   1.000  H
  H36      1.0000 0.03733  0.63343  0.15487  Biso   1.000  H
  C49      1.0000 0.00294  0.08847  0.82106  Biso   1.000  C
  C50      1.0000 0.93343  0.15321  0.76159  Biso   1.000  C
  C51      1.0000 0.97227  0.17872  0.66283  Biso   1.000  C
  C52      1.0000 0.83681  0.17728  0.79968  Biso   1.000  C
  C53      1.0000 0.99935  0.08786  0.08773  Biso   1.000  C
  C54      1.0000 0.83381  0.79975  0.17864  Biso   1.000  C
  C55      1.0000 0.49576  0.58129  0.58912  Biso   1.000  C
  C56      1.0000 0.43102  0.65080  0.64860  Biso   1.000  C
  C57      1.0000 0.40551  0.61197  0.74736  Biso   1.000  C
  C58      1.0000 0.40696  0.74742  0.61051  Biso   1.000  C
  C59      1.0000 0.49637  0.58489  0.32246  Biso   1.000  C
  C60      1.0000 0.78448  0.75042  0.23155  Biso   1.000  C
  C61      1.0000 0.75552  0.32153  0.58912  Biso   1.000  C
  C62      1.0000 0.82503  0.25679  0.64860  Biso   1.000  C
  C63      1.0000 0.78620  0.23128  0.74736  Biso   1.000  C
  C64      1.0000 0.92165  0.23273  0.61051  Biso   1.000  C
  C65      1.0000 0.75911  0.32214  0.32246  Biso   1.000  C
  C66      1.0000 0.92465  0.61025  0.23155  Biso   1.000  C
  C67      1.0000 0.26270  0.82871  0.82106  Biso   1.000  C
  C68      1.0000 0.32744  0.75920  0.76159  Biso   1.000  C
  C69      1.0000 0.35295  0.79804  0.66283  Biso   1.000  C
  C70      1.0000 0.35151  0.66258  0.79968  Biso   1.000  C
  C71      1.0000 0.26209  0.82512  0.08773  Biso   1.000  C
  C72      1.0000 0.97398  0.65958  0.17864  Biso   1.000  C
  C73      1.0000 0.26300  0.08877  0.82116  Biso   1.000  C
  C74      1.0000 0.99826  0.82402  0.08683  Biso   1.000  C
  C75      1.0000 0.93321  0.75898  0.15586  Biso   1.000  C
  C76      1.0000 0.49546  0.32124  0.58903  Biso   1.000  C
  C77      1.0000 0.76021  0.58598  0.32336  Biso   1.000  C
  C78      1.0000 0.82525  0.65102  0.25433  Biso   1.000  C
  O27      1.0000 0.08071  0.07216  0.77710  Biso   1.000  O
  O28      1.0000 0.95103  0.07295  0.90402  Biso   1.000  O
  O29      1.0000 0.08050  0.07234  0.07142  Biso   1.000  O
  O30      1.0000 0.94963  0.07254  0.07151  Biso   1.000  O
  O31      1.0000 0.94992  0.90577  0.07311  Biso   1.000  O
  O32      1.0000 0.51207  0.50352  0.63309  Biso   1.000  O
  O33      1.0000 0.51128  0.63321  0.50617  Biso   1.000  O
  O34      1.0000 0.51189  0.50374  0.33877  Biso   1.000  O
  O35      1.0000 0.51169  0.63461  0.33867  Biso   1.000  O
  O36      1.0000 0.67846  0.63431  0.33708  Biso   1.000  O
  O37      1.0000 0.67775  0.33784  0.63309  Biso   1.000  O
  O38      1.0000 0.80744  0.33705  0.50617  Biso   1.000  O
  O39      1.0000 0.67796  0.33766  0.33877  Biso   1.000  O
  O40      1.0000 0.80884  0.33746  0.33867  Biso   1.000  O
  O41      1.0000 0.80854  0.50423  0.33708  Biso   1.000  O
  O42      1.0000 0.24639  0.90648  0.77710  Biso   1.000  O
  O43      1.0000 0.24718  0.77679  0.90402  Biso   1.000  O
  O44      1.0000 0.24658  0.90627  0.07142  Biso   1.000  O
  O45      1.0000 0.24678  0.77539  0.07151  Biso   1.000  O
  O46      1.0000 0.08000  0.77569  0.07311  Biso   1.000  O
  O47      1.0000 0.12933  0.95510  0.95763  Biso   1.000  O
  O48      1.0000 0.24629  0.07206  0.77561  Biso   1.000  O
  O49      1.0000 0.24619  0.07196  0.90581  Biso   1.000  O
  O50      1.0000 0.62913  0.45490  0.45256  Biso   1.000  O
  O51      1.0000 0.51217  0.33794  0.63458  Biso   1.000  O
  O52      1.0000 0.51228  0.33805  0.50438  Biso   1.000  O
