data_image0
_cell_length_a       18.283
_cell_length_b       18.283
_cell_length_c       18.283
_cell_angle_alpha    60
_cell_angle_beta     60
_cell_angle_gamma    60

_symmetry_space_group_name_H-M    "P 1"
_symmetry_int_tables_number       1

loop_
  _symmetry_equiv_pos_as_xyz
  'x, y, z'

loop_
  _atom_site_label
  _atom_site_occupancy
  _atom_site_fract_x
  _atom_site_fract_y
  _atom_site_fract_z
  _atom_site_thermal_displace_type
  _atom_site_B_iso_or_equiv
  _atom_site_type_symbol
  Zn1      1.0000 0.20670  0.37990  0.20670  Biso   1.000  Zn
  Zn2      1.0000 0.37990  0.20670  0.20670  Biso   1.000  Zn
  Zn3      1.0000 0.20670  0.20670  0.20670  Biso   1.000  Zn
  Zn4      1.0000 0.20670  0.20670  0.37990  Biso   1.000  Zn
  Zn5      1.0000 0.62010  0.79330  0.79330  Biso   1.000  Zn
  Zn6      1.0000 0.79330  0.62010  0.79330  Biso   1.000  Zn
  Zn7      1.0000 0.79330  0.79330  0.79330  Biso   1.000  Zn
  Zn8      1.0000 0.79330  0.79330  0.62010  Biso   1.000  Zn
  H1       1.0000 0.04940  0.56380  0.04940  Biso   1.000  H
  H2       1.0000 0.56380  0.04940  0.33740  Biso   1.000  H
  H3       1.0000 0.04940  0.33740  0.04940  Biso   1.000  H
  H4       1.0000 0.33740  0.04940  0.56380  Biso   1.000  H
  H5       1.0000 0.04940  0.04940  0.33740  Biso   1.000  H
  H6       1.0000 0.56380  0.33740  0.04940  Biso   1.000  H
  H7       1.0000 0.04940  0.04940  0.56380  Biso   1.000  H
  H8       1.0000 0.33740  0.56380  0.04940  Biso   1.000  H
  H9       1.0000 0.04940  0.33740  0.56380  Biso   1.000  H
  H10      1.0000 0.56380  0.04940  0.04940  Biso   1.000  H
  H11      1.0000 0.04940  0.56380  0.33740  Biso   1.000  H
  H12      1.0000 0.33740  0.04940  0.04940  Biso   1.000  H
  H13      1.0000 0.43620  0.95060  0.95060  Biso   1.000  H
  H14      1.0000 0.95060  0.43620  0.66260  Biso   1.000  H
  H15      1.0000 0.66260  0.95060  0.95060  Biso   1.000  H
  H16      1.0000 0.95060  0.66260  0.43620  Biso   1.000  H
  H17      1.0000 0.95060  0.95060  0.66260  Biso   1.000  H
  H18      1.0000 0.66260  0.43620  0.95060  Biso   1.000  H
  H19      1.0000 0.95060  0.95060  0.43620  Biso   1.000  H
  H20      1.0000 0.43620  0.66260  0.95060  Biso   1.000  H
  H21      1.0000 0.66260  0.95060  0.43620  Biso   1.000  H
  H22      1.0000 0.95060  0.43620  0.95060  Biso   1.000  H
  H23      1.0000 0.43620  0.95060  0.66260  Biso   1.000  H
  H24      1.0000 0.95060  0.66260  0.95060  Biso   1.000  H
  C1       1.0000 0.02700  0.53820  0.02700  Biso   1.000  C
  C2       1.0000 0.53820  0.02700  0.40780  Biso   1.000  C
  C3       1.0000 0.02700  0.40780  0.02700  Biso   1.000  C
  C4       1.0000 0.40780  0.02700  0.53820  Biso   1.000  C
  C5       1.0000 0.02700  0.02700  0.40780  Biso   1.000  C
  C6       1.0000 0.53820  0.40780  0.02700  Biso   1.000  C
  C7       1.0000 0.02700  0.02700  0.53820  Biso   1.000  C
  C8       1.0000 0.40780  0.53820  0.02700  Biso   1.000  C
  C9       1.0000 0.02700  0.40780  0.53820  Biso   1.000  C
  C10      1.0000 0.53820  0.02700  0.02700  Biso   1.000  C
  C11      1.0000 0.02700  0.53820  0.40780  Biso   1.000  C
  C12      1.0000 0.40780  0.02700  0.02700  Biso   1.000  C
  C13      1.0000 0.46180  0.97300  0.97300  Biso   1.000  C
  C14      1.0000 0.97300  0.46180  0.59220  Biso   1.000  C
  C15      1.0000 0.59220  0.97300  0.97300  Biso   1.000  C
  C16      1.0000 0.97300  0.59220  0.46180  Biso   1.000  C
  C17      1.0000 0.97300  0.97300  0.59220  Biso   1.000  C
  C18      1.0000 0.59220  0.46180  0.97300  Biso   1.000  C
  C19      1.0000 0.97300  0.97300  0.46180  Biso   1.000  C
  C20      1.0000 0.46180  0.59220  0.97300  Biso   1.000  C
  C21      1.0000 0.59220  0.97300  0.46180  Biso   1.000  C
  C22      1.0000 0.97300  0.46180  0.97300  Biso   1.000  C
  C23      1.0000 0.46180  0.97300  0.59220  Biso   1.000  C
  C24      1.0000 0.97300  0.59220  0.97300  Biso   1.000  C
  C25      1.0000 0.11070  0.38930  0.11070  Biso   1.000  C
  C26      1.0000 0.05420  0.44580  0.05420  Biso   1.000  C
  C27      1.0000 0.38930  0.11070  0.38930  Biso   1.000  C
  C28      1.0000 0.44580  0.05420  0.44580  Biso   1.000  C
  C29      1.0000 0.11070  0.11070  0.38930  Biso   1.000  C
  C30      1.0000 0.05420  0.05420  0.44580  Biso   1.000  C
  C31      1.0000 0.38930  0.38930  0.11070  Biso   1.000  C
  C32      1.0000 0.44580  0.44580  0.05420  Biso   1.000  C
  C33      1.0000 0.11070  0.38930  0.38930  Biso   1.000  C
  C34      1.0000 0.05420  0.44580  0.44580  Biso   1.000  C
  C35      1.0000 0.38930  0.11070  0.11070  Biso   1.000  C
  C36      1.0000 0.44580  0.05420  0.05420  Biso   1.000  C
  C37      1.0000 0.61070  0.88930  0.88930  Biso   1.000  C
  C38      1.0000 0.55420  0.94580  0.94580  Biso   1.000  C
  C39      1.0000 0.88930  0.61070  0.61070  Biso   1.000  C
  C40      1.0000 0.94580  0.55420  0.55420  Biso   1.000  C
  C41      1.0000 0.88930  0.88930  0.61070  Biso   1.000  C
  C42      1.0000 0.94580  0.94580  0.55420  Biso   1.000  C
  C43      1.0000 0.61070  0.61070  0.88930  Biso   1.000  C
  C44      1.0000 0.55420  0.55420  0.94580  Biso   1.000  C
  C45      1.0000 0.61070  0.88930  0.61070  Biso   1.000  C
  C46      1.0000 0.55420  0.94580  0.55420  Biso   1.000  C
  C47      1.0000 0.88930  0.61070  0.88930  Biso   1.000  C
  C48      1.0000 0.94580  0.55420  0.94580  Biso   1.000  C
  O1       1.0000 0.25000  0.25000  0.25000  Biso   1.000  O
  O2       1.0000 0.75000  0.75000  0.75000  Biso   1.000  O
  O3       1.0000 0.13430  0.42670  0.13430  Biso   1.000  O
  O4       1.0000 0.42670  0.13430  0.30470  Biso   1.000  O
  O5       1.0000 0.13430  0.30470  0.13430  Biso   1.000  O
  O6       1.0000 0.30470  0.13430  0.42670  Biso   1.000  O
  O7       1.0000 0.13430  0.13430  0.30470  Biso   1.000  O
  O8       1.0000 0.42670  0.30470  0.13430  Biso   1.000  O
  O9       1.0000 0.13430  0.13430  0.42670  Biso   1.000  O
  O10      1.0000 0.30470  0.42670  0.13430  Biso   1.000  O
  O11      1.0000 0.13430  0.30470  0.42670  Biso   1.000  O
  O12      1.0000 0.42670  0.13430  0.13430  Biso   1.000  O
  O13      1.0000 0.13430  0.42670  0.30470  Biso   1.000  O
  O14      1.0000 0.30470  0.13430  0.13430  Biso   1.000  O
  O15      1.0000 0.57330  0.86570  0.86570  Biso   1.000  O
  O16      1.0000 0.86570  0.57330  0.69530  Biso   1.000  O
  O17      1.0000 0.69530  0.86570  0.86570  Biso   1.000  O
  O18      1.0000 0.86570  0.69530  0.57330  Biso   1.000  O
  O19      1.0000 0.86570  0.86570  0.69530  Biso   1.000  O
  O20      1.0000 0.69530  0.57330  0.86570  Biso   1.000  O
  O21      1.0000 0.86570  0.86570  0.57330  Biso   1.000  O
  O22      1.0000 0.57330  0.69530  0.86570  Biso   1.000  O
  O23      1.0000 0.69530  0.86570  0.57330  Biso   1.000  O
  O24      1.0000 0.86570  0.57330  0.86570  Biso   1.000  O
  O25      1.0000 0.57330  0.86570  0.69530  Biso   1.000  O
  O26      1.0000 0.86570  0.69530  0.86570  Biso   1.000  O
  Zn9      1.0000 0.59408  0.07800  0.71980  Biso   1.000  Zn
  Zn10     1.0000 0.59408  0.25220  0.71980  Biso   1.000  Zn
  Zn11     1.0000 0.41988  0.25220  0.71980  Biso   1.000  Zn
  Zn12     1.0000 0.59408  0.25220  0.54560  Biso   1.000  Zn
  Zn13     1.0000 0.01139  0.66364  0.13124  Biso   1.000  Zn
  Zn14     1.0000 0.01139  0.83784  0.13124  Biso   1.000  Zn
  Zn15     1.0000 0.18559  0.66364  0.13124  Biso   1.000  Zn
  Zn16     1.0000 0.01139  0.66364  0.30544  Biso   1.000  Zn
  H25      1.0000 0.45616  0.89203  0.88175  Biso   1.000  H
  H26      1.0000 0.75604  0.41415  0.58188  Biso   1.000  H
  H27      1.0000 0.23391  0.11428  0.88175  Biso   1.000  H
  H28      1.0000 0.75604  0.41415  0.35963  Biso   1.000  H
  H29      1.0000 0.23391  0.41415  0.58188  Biso   1.000  H
  H30      1.0000 0.75604  0.11428  0.88175  Biso   1.000  H
  H31      1.0000 0.45616  0.41415  0.35963  Biso   1.000  H
  H32      1.0000 0.75604  0.89203  0.88175  Biso   1.000  H
  H33      1.0000 0.75604  0.11428  0.35963  Biso   1.000  H
  H34      1.0000 0.45616  0.41415  0.88175  Biso   1.000  H
  H35      1.0000 0.75604  0.89203  0.58188  Biso   1.000  H
  H36      1.0000 0.23391  0.41415  0.88175  Biso   1.000  H
  H37      1.0000 0.14931  0.50168  0.96929  Biso   1.000  H
  H38      1.0000 0.84943  0.02381  0.26916  Biso   1.000  H
  H39      1.0000 0.37156  0.50168  0.96929  Biso   1.000  H
  H40      1.0000 0.84943  0.80156  0.49141  Biso   1.000  H
  H41      1.0000 0.37156  0.50168  0.26916  Biso   1.000  H
  H42      1.0000 0.84943  0.02381  0.96929  Biso   1.000  H
  H43      1.0000 0.14931  0.50168  0.49141  Biso   1.000  H
  H44      1.0000 0.84943  0.80156  0.96929  Biso   1.000  H
  H45      1.0000 0.84943  0.50168  0.49141  Biso   1.000  H
  H46      1.0000 0.14931  0.02381  0.96929  Biso   1.000  H
  H47      1.0000 0.84943  0.50168  0.26916  Biso   1.000  H
  H48      1.0000 0.37156  0.80156  0.96929  Biso   1.000  H
  C49      1.0000 0.39276  0.91865  0.90014  Biso   1.000  C
  C50      1.0000 0.77442  0.43254  0.51848  Biso   1.000  C
  C51      1.0000 0.26054  0.05088  0.90014  Biso   1.000  C
  C52      1.0000 0.77442  0.43254  0.38625  Biso   1.000  C
  C53      1.0000 0.26054  0.43254  0.51848  Biso   1.000  C
  C54      1.0000 0.77442  0.05088  0.90014  Biso   1.000  C
  C55      1.0000 0.39276  0.43254  0.38625  Biso   1.000  C
  C56      1.0000 0.77442  0.91865  0.90014  Biso   1.000  C
  C57      1.0000 0.77442  0.05088  0.38625  Biso   1.000  C
  C58      1.0000 0.39276  0.43254  0.90014  Biso   1.000  C
  C59      1.0000 0.77442  0.91865  0.51848  Biso   1.000  C
  C60      1.0000 0.26054  0.43254  0.90014  Biso   1.000  C
  C61      1.0000 0.21271  0.48330  0.95090  Biso   1.000  C
  C62      1.0000 0.83105  0.99718  0.33256  Biso   1.000  C
  C63      1.0000 0.34493  0.48330  0.95090  Biso   1.000  C
  C64      1.0000 0.83105  0.86496  0.46478  Biso   1.000  C
  C65      1.0000 0.34493  0.48330  0.33256  Biso   1.000  C
  C66      1.0000 0.83105  0.99718  0.95090  Biso   1.000  C
  C67      1.0000 0.21271  0.48330  0.46478  Biso   1.000  C
  C68      1.0000 0.83105  0.86496  0.95090  Biso   1.000  C
  C69      1.0000 0.83105  0.48330  0.46478  Biso   1.000  C
  C70      1.0000 0.21271  0.99718  0.95090  Biso   1.000  C
  C71      1.0000 0.83105  0.48330  0.33256  Biso   1.000  C
  C72      1.0000 0.34493  0.86496  0.95090  Biso   1.000  C
  C73      1.0000 0.41167  0.06979  0.81512  Biso   1.000  C
  C74      1.0000 0.35369  0.01181  0.87310  Biso   1.000  C
  C75      1.0000 0.68940  0.34752  0.53739  Biso   1.000  C
  C76      1.0000 0.74738  0.40550  0.47941  Biso   1.000  C
  C77      1.0000 0.41167  0.34752  0.53739  Biso   1.000  C
  C78      1.0000 0.35369  0.40550  0.47941  Biso   1.000  C
  C79      1.0000 0.68940  0.06979  0.81512  Biso   1.000  C
  C80      1.0000 0.74738  0.01181  0.87310  Biso   1.000  C
  C81      1.0000 0.68940  0.06979  0.53739  Biso   1.000  C
  C82      1.0000 0.74738  0.01181  0.47941  Biso   1.000  C
  C83      1.0000 0.41167  0.34752  0.81512  Biso   1.000  C
  C84      1.0000 0.35369  0.40550  0.87310  Biso   1.000  C
  C85      1.0000 0.19380  0.56832  0.03592  Biso   1.000  C
  C86      1.0000 0.25178  0.51034  0.97794  Biso   1.000  C
  C87      1.0000 0.91607  0.84605  0.31365  Biso   1.000  C
  C88      1.0000 0.85809  0.90403  0.37163  Biso   1.000  C
  C89      1.0000 0.19380  0.56832  0.31365  Biso   1.000  C
  C90      1.0000 0.25178  0.51034  0.37163  Biso   1.000  C
  C91      1.0000 0.91607  0.84605  0.03592  Biso   1.000  C
  C92      1.0000 0.85809  0.90403  0.97794  Biso   1.000  C
  C93      1.0000 0.91607  0.56832  0.31365  Biso   1.000  C
  C94      1.0000 0.85809  0.51034  0.37163  Biso   1.000  C
  C95      1.0000 0.19380  0.84605  0.03592  Biso   1.000  C
  C96      1.0000 0.25178  0.90403  0.97794  Biso   1.000  C
  O27      1.0000 0.55053  0.20865  0.67625  Biso   1.000  O
  O28      1.0000 0.05494  0.70718  0.17479  Biso   1.000  O
  O29      1.0000 0.49547  0.03047  0.79287  Biso   1.000  O
  O30      1.0000 0.66716  0.32527  0.62119  Biso   1.000  O
  O31      1.0000 0.37235  0.15359  0.79287  Biso   1.000  O
  O32      1.0000 0.66716  0.32527  0.49807  Biso   1.000  O
  O33      1.0000 0.37235  0.32527  0.62119  Biso   1.000  O
  O34      1.0000 0.66716  0.15359  0.79287  Biso   1.000  O
  O35      1.0000 0.49547  0.32527  0.49807  Biso   1.000  O
  O36      1.0000 0.66716  0.03047  0.79287  Biso   1.000  O
  O37      1.0000 0.66716  0.15359  0.49807  Biso   1.000  O
  O38      1.0000 0.49547  0.32527  0.79287  Biso   1.000  O
  O39      1.0000 0.66716  0.03047  0.62119  Biso   1.000  O
  O40      1.0000 0.37235  0.32527  0.79287  Biso   1.000  O
  O41      1.0000 0.11000  0.59056  0.05817  Biso   1.000  O
  O42      1.0000 0.93831  0.88537  0.22985  Biso   1.000  O
  O43      1.0000 0.23312  0.59056  0.05817  Biso   1.000  O
  O44      1.0000 0.93831  0.76225  0.35297  Biso   1.000  O
  O45      1.0000 0.23312  0.59056  0.22985  Biso   1.000  O
  O46      1.0000 0.93831  0.88537  0.05817  Biso   1.000  O
  O47      1.0000 0.11000  0.59056  0.35297  Biso   1.000  O
  O48      1.0000 0.93831  0.76225  0.05817  Biso   1.000  O
  O49      1.0000 0.93831  0.59056  0.35297  Biso   1.000  O
  O50      1.0000 0.11000  0.88537  0.05817  Biso   1.000  O
  O51      1.0000 0.93831  0.59056  0.22985  Biso   1.000  O
  O52      1.0000 0.23312  0.76225  0.05817  Biso   1.000  O
