data_image0
_cell_length_a       18.283
_cell_length_b       18.283
_cell_length_c       18.283
_cell_angle_alpha    60
_cell_angle_beta     60
_cell_angle_gamma    60

_symmetry_space_group_name_H-M    "P 1"
_symmetry_int_tables_number       1

loop_
  _symmetry_equiv_pos_as_xyz
  'x, y, z'

loop_
  _atom_site_label
  _atom_site_occupancy
  _atom_site_fract_x
  _atom_site_fract_y
  _atom_site_fract_z
  _atom_site_thermal_displace_type
  _atom_site_B_iso_or_equiv
  _atom_site_type_symbol
  Zn1      1.0000 0.20670  0.37990  0.20670  Biso   1.000  Zn
  Zn2      1.0000 0.37990  0.20670  0.20670  Biso   1.000  Zn
  Zn3      1.0000 0.20670  0.20670  0.20670  Biso   1.000  Zn
  Zn4      1.0000 0.20670  0.20670  0.37990  Biso   1.000  Zn
  Zn5      1.0000 0.62010  0.79330  0.79330  Biso   1.000  Zn
  Zn6      1.0000 0.79330  0.62010  0.79330  Biso   1.000  Zn
  Zn7      1.0000 0.79330  0.79330  0.79330  Biso   1.000  Zn
  Zn8      1.0000 0.79330  0.79330  0.62010  Biso   1.000  Zn
  H1       1.0000 0.04940  0.56380  0.04940  Biso   1.000  H
  H2       1.0000 0.56380  0.04940  0.33740  Biso   1.000  H
  H3       1.0000 0.04940  0.33740  0.04940  Biso   1.000  H
  H4       1.0000 0.33740  0.04940  0.56380  Biso   1.000  H
  H5       1.0000 0.04940  0.04940  0.33740  Biso   1.000  H
  H6       1.0000 0.56380  0.33740  0.04940  Biso   1.000  H
  H7       1.0000 0.04940  0.04940  0.56380  Biso   1.000  H
  H8       1.0000 0.33740  0.56380  0.04940  Biso   1.000  H
  H9       1.0000 0.04940  0.33740  0.56380  Biso   1.000  H
  H10      1.0000 0.56380  0.04940  0.04940  Biso   1.000  H
  H11      1.0000 0.04940  0.56380  0.33740  Biso   1.000  H
  H12      1.0000 0.33740  0.04940  0.04940  Biso   1.000  H
  H13      1.0000 0.43620  0.95060  0.95060  Biso   1.000  H
  H14      1.0000 0.95060  0.43620  0.66260  Biso   1.000  H
  H15      1.0000 0.66260  0.95060  0.95060  Biso   1.000  H
  H16      1.0000 0.95060  0.66260  0.43620  Biso   1.000  H
  H17      1.0000 0.95060  0.95060  0.66260  Biso   1.000  H
  H18      1.0000 0.66260  0.43620  0.95060  Biso   1.000  H
  H19      1.0000 0.95060  0.95060  0.43620  Biso   1.000  H
  H20      1.0000 0.43620  0.66260  0.95060  Biso   1.000  H
  H21      1.0000 0.66260  0.95060  0.43620  Biso   1.000  H
  H22      1.0000 0.95060  0.43620  0.95060  Biso   1.000  H
  H23      1.0000 0.43620  0.95060  0.66260  Biso   1.000  H
  H24      1.0000 0.95060  0.66260  0.95060  Biso   1.000  H
  C1       1.0000 0.02700  0.53820  0.02700  Biso   1.000  C
  C2       1.0000 0.53820  0.02700  0.40780  Biso   1.000  C
  C3       1.0000 0.02700  0.40780  0.02700  Biso   1.000  C
  C4       1.0000 0.40780  0.02700  0.53820  Biso   1.000  C
  C5       1.0000 0.02700  0.02700  0.40780  Biso   1.000  C
  C6       1.0000 0.53820  0.40780  0.02700  Biso   1.000  C
  C7       1.0000 0.02700  0.02700  0.53820  Biso   1.000  C
  C8       1.0000 0.40780  0.53820  0.02700  Biso   1.000  C
  C9       1.0000 0.02700  0.40780  0.53820  Biso   1.000  C
  C10      1.0000 0.53820  0.02700  0.02700  Biso   1.000  C
  C11      1.0000 0.02700  0.53820  0.40780  Biso   1.000  C
  C12      1.0000 0.40780  0.02700  0.02700  Biso   1.000  C
  C13      1.0000 0.46180  0.97300  0.97300  Biso   1.000  C
  C14      1.0000 0.97300  0.46180  0.59220  Biso   1.000  C
  C15      1.0000 0.59220  0.97300  0.97300  Biso   1.000  C
  C16      1.0000 0.97300  0.59220  0.46180  Biso   1.000  C
  C17      1.0000 0.97300  0.97300  0.59220  Biso   1.000  C
  C18      1.0000 0.59220  0.46180  0.97300  Biso   1.000  C
  C19      1.0000 0.97300  0.97300  0.46180  Biso   1.000  C
  C20      1.0000 0.46180  0.59220  0.97300  Biso   1.000  C
  C21      1.0000 0.59220  0.97300  0.46180  Biso   1.000  C
  C22      1.0000 0.97300  0.46180  0.97300  Biso   1.000  C
  C23      1.0000 0.46180  0.97300  0.59220  Biso   1.000  C
  C24      1.0000 0.97300  0.59220  0.97300  Biso   1.000  C
  C25      1.0000 0.11070  0.38930  0.11070  Biso   1.000  C
  C26      1.0000 0.05420  0.44580  0.05420  Biso   1.000  C
  C27      1.0000 0.38930  0.11070  0.38930  Biso   1.000  C
  C28      1.0000 0.44580  0.05420  0.44580  Biso   1.000  C
  C29      1.0000 0.11070  0.11070  0.38930  Biso   1.000  C
  C30      1.0000 0.05420  0.05420  0.44580  Biso   1.000  C
  C31      1.0000 0.38930  0.38930  0.11070  Biso   1.000  C
  C32      1.0000 0.44580  0.44580  0.05420  Biso   1.000  C
  C33      1.0000 0.11070  0.38930  0.38930  Biso   1.000  C
  C34      1.0000 0.05420  0.44580  0.44580  Biso   1.000  C
  C35      1.0000 0.38930  0.11070  0.11070  Biso   1.000  C
  C36      1.0000 0.44580  0.05420  0.05420  Biso   1.000  C
  C37      1.0000 0.61070  0.88930  0.88930  Biso   1.000  C
  C38      1.0000 0.55420  0.94580  0.94580  Biso   1.000  C
  C39      1.0000 0.88930  0.61070  0.61070  Biso   1.000  C
  C40      1.0000 0.94580  0.55420  0.55420  Biso   1.000  C
  C41      1.0000 0.88930  0.88930  0.61070  Biso   1.000  C
  C42      1.0000 0.94580  0.94580  0.55420  Biso   1.000  C
  C43      1.0000 0.61070  0.61070  0.88930  Biso   1.000  C
  C44      1.0000 0.55420  0.55420  0.94580  Biso   1.000  C
  C45      1.0000 0.61070  0.88930  0.61070  Biso   1.000  C
  C46      1.0000 0.55420  0.94580  0.55420  Biso   1.000  C
  C47      1.0000 0.88930  0.61070  0.88930  Biso   1.000  C
  C48      1.0000 0.94580  0.55420  0.94580  Biso   1.000  C
  O1       1.0000 0.25000  0.25000  0.25000  Biso   1.000  O
  O2       1.0000 0.75000  0.75000  0.75000  Biso   1.000  O
  O3       1.0000 0.13430  0.42670  0.13430  Biso   1.000  O
  O4       1.0000 0.42670  0.13430  0.30470  Biso   1.000  O
  O5       1.0000 0.13430  0.30470  0.13430  Biso   1.000  O
  O6       1.0000 0.30470  0.13430  0.42670  Biso   1.000  O
  O7       1.0000 0.13430  0.13430  0.30470  Biso   1.000  O
  O8       1.0000 0.42670  0.30470  0.13430  Biso   1.000  O
  O9       1.0000 0.13430  0.13430  0.42670  Biso   1.000  O
  O10      1.0000 0.30470  0.42670  0.13430  Biso   1.000  O
  O11      1.0000 0.13430  0.30470  0.42670  Biso   1.000  O
  O12      1.0000 0.42670  0.13430  0.13430  Biso   1.000  O
  O13      1.0000 0.13430  0.42670  0.30470  Biso   1.000  O
  O14      1.0000 0.30470  0.13430  0.13430  Biso   1.000  O
  O15      1.0000 0.57330  0.86570  0.86570  Biso   1.000  O
  O16      1.0000 0.86570  0.57330  0.69530  Biso   1.000  O
  O17      1.0000 0.69530  0.86570  0.86570  Biso   1.000  O
  O18      1.0000 0.86570  0.69530  0.57330  Biso   1.000  O
  O19      1.0000 0.86570  0.86570  0.69530  Biso   1.000  O
  O20      1.0000 0.69530  0.57330  0.86570  Biso   1.000  O
  O21      1.0000 0.86570  0.86570  0.57330  Biso   1.000  O
  O22      1.0000 0.57330  0.69530  0.86570  Biso   1.000  O
  O23      1.0000 0.69530  0.86570  0.57330  Biso   1.000  O
  O24      1.0000 0.86570  0.57330  0.86570  Biso   1.000  O
  O25      1.0000 0.57330  0.86570  0.69530  Biso   1.000  O
  O26      1.0000 0.86570  0.69530  0.86570  Biso   1.000  O
  Zn9      1.0000 0.49853  0.51593  0.33237  Biso   1.000  Zn
  Zn10     1.0000 0.49853  0.51593  0.50442  Biso   1.000  Zn
  Zn11     1.0000 0.32648  0.51593  0.50442  Biso   1.000  Zn
  Zn12     1.0000 0.49853  0.34387  0.50442  Biso   1.000  Zn
  Zn13     1.0000 0.92015  0.93756  0.09811  Biso   1.000  Zn
  Zn14     1.0000 0.92015  0.93756  0.92606  Biso   1.000  Zn
  Zn15     1.0000 0.92015  0.10962  0.92606  Biso   1.000  Zn
  Zn16     1.0000 0.09220  0.93756  0.92606  Biso   1.000  Zn
  H25      1.0000 0.36285  0.67527  0.14936  Biso   1.000  H
  H26      1.0000 0.65786  0.38026  0.66376  Biso   1.000  H
  H27      1.0000 0.14346  0.67527  0.36875  Biso   1.000  H
  H28      1.0000 0.65786  0.16087  0.66376  Biso   1.000  H
  H29      1.0000 0.36285  0.16087  0.66376  Biso   1.000  H
  H30      1.0000 0.65786  0.67527  0.14936  Biso   1.000  H
  H31      1.0000 0.14346  0.38026  0.66376  Biso   1.000  H
  H32      1.0000 0.65786  0.67527  0.36875  Biso   1.000  H
  H33      1.0000 0.36285  0.67527  0.66376  Biso   1.000  H
  H34      1.0000 0.65786  0.16087  0.36875  Biso   1.000  H
  H35      1.0000 0.14346  0.67527  0.66376  Biso   1.000  H
  H36      1.0000 0.65786  0.38026  0.14936  Biso   1.000  H
  H37      1.0000 0.76082  0.07323  0.28111  Biso   1.000  H
  H38      1.0000 0.05583  0.77822  0.76672  Biso   1.000  H
  H39      1.0000 0.76082  0.29262  0.06173  Biso   1.000  H
  H40      1.0000 0.27521  0.77822  0.76672  Biso   1.000  H
  H41      1.0000 0.27521  0.07323  0.76672  Biso   1.000  H
  H42      1.0000 0.76082  0.77822  0.28111  Biso   1.000  H
  H43      1.0000 0.05583  0.29262  0.76672  Biso   1.000  H
  H44      1.0000 0.76082  0.77822  0.06173  Biso   1.000  H
  H45      1.0000 0.76082  0.07323  0.76672  Biso   1.000  H
  H46      1.0000 0.27521  0.77822  0.06173  Biso   1.000  H
  H47      1.0000 0.76082  0.29262  0.76672  Biso   1.000  H
  H48      1.0000 0.05583  0.77822  0.28111  Biso   1.000  H
  C49      1.0000 0.30004  0.69345  0.17580  Biso   1.000  C
  C50      1.0000 0.67605  0.31744  0.68195  Biso   1.000  C
  C51      1.0000 0.16990  0.69345  0.30594  Biso   1.000  C
  C52      1.0000 0.67605  0.18731  0.68195  Biso   1.000  C
  C53      1.0000 0.30004  0.18731  0.68195  Biso   1.000  C
  C54      1.0000 0.67605  0.69345  0.17580  Biso   1.000  C
  C55      1.0000 0.16990  0.31744  0.68195  Biso   1.000  C
  C56      1.0000 0.67605  0.69345  0.30594  Biso   1.000  C
  C57      1.0000 0.30004  0.69345  0.68195  Biso   1.000  C
  C58      1.0000 0.67605  0.18731  0.30594  Biso   1.000  C
  C59      1.0000 0.16990  0.69345  0.68195  Biso   1.000  C
  C60      1.0000 0.67605  0.31744  0.17580  Biso   1.000  C
  C61      1.0000 0.74263  0.13605  0.25467  Biso   1.000  C
  C62      1.0000 0.11864  0.76004  0.74853  Biso   1.000  C
  C63      1.0000 0.74263  0.26618  0.12454  Biso   1.000  C
  C64      1.0000 0.24878  0.76004  0.74853  Biso   1.000  C
  C65      1.0000 0.24878  0.13605  0.74853  Biso   1.000  C
  C66      1.0000 0.74263  0.76004  0.25467  Biso   1.000  C
  C67      1.0000 0.11864  0.26618  0.74853  Biso   1.000  C
  C68      1.0000 0.74263  0.76004  0.12454  Biso   1.000  C
  C69      1.0000 0.74263  0.13605  0.74853  Biso   1.000  C
  C70      1.0000 0.24878  0.76004  0.12454  Biso   1.000  C
  C71      1.0000 0.74263  0.26618  0.74853  Biso   1.000  C
  C72      1.0000 0.11864  0.76004  0.25467  Biso   1.000  C
  C73      1.0000 0.26172  0.66670  0.26762  Biso   1.000  C
  C74      1.0000 0.31923  0.60919  0.32513  Biso   1.000  C
  C75      1.0000 0.64929  0.27913  0.65519  Biso   1.000  C
  C76      1.0000 0.59179  0.33664  0.59769  Biso   1.000  C
  C77      1.0000 0.26172  0.27913  0.65519  Biso   1.000  C
  C78      1.0000 0.31923  0.33664  0.59769  Biso   1.000  C
  C79      1.0000 0.64929  0.66670  0.26762  Biso   1.000  C
  C80      1.0000 0.59179  0.60919  0.32513  Biso   1.000  C
  C81      1.0000 0.26172  0.66670  0.65519  Biso   1.000  C
  C82      1.0000 0.31923  0.60919  0.59769  Biso   1.000  C
  C83      1.0000 0.64929  0.27913  0.26762  Biso   1.000  C
  C84      1.0000 0.59179  0.33664  0.32513  Biso   1.000  C
  C85      1.0000 0.76939  0.17436  0.16285  Biso   1.000  C
  C86      1.0000 0.82689  0.11685  0.10535  Biso   1.000  C
  C87      1.0000 0.15695  0.78679  0.77528  Biso   1.000  C
  C88      1.0000 0.09945  0.84430  0.83279  Biso   1.000  C
  C89      1.0000 0.15695  0.17436  0.77528  Biso   1.000  C
  C90      1.0000 0.09945  0.11685  0.83279  Biso   1.000  C
  C91      1.0000 0.76939  0.78679  0.16285  Biso   1.000  C
  C92      1.0000 0.82689  0.84430  0.10535  Biso   1.000  C
  C93      1.0000 0.76939  0.17436  0.77528  Biso   1.000  C
  C94      1.0000 0.82689  0.11685  0.83279  Biso   1.000  C
  C95      1.0000 0.15695  0.78679  0.16285  Biso   1.000  C
  C96      1.0000 0.09945  0.84430  0.10535  Biso   1.000  C
  O27      1.0000 0.45551  0.47291  0.46141  Biso   1.000  O
  O28      1.0000 0.96317  0.98058  0.96907  Biso   1.000  O
  O29      1.0000 0.40439  0.58748  0.28339  Biso   1.000  O
  O30      1.0000 0.57008  0.42180  0.57597  Biso   1.000  O
  O31      1.0000 0.27749  0.58748  0.41029  Biso   1.000  O
  O32      1.0000 0.57008  0.29489  0.57597  Biso   1.000  O
  O33      1.0000 0.40439  0.29489  0.57597  Biso   1.000  O
  O34      1.0000 0.57008  0.58748  0.28339  Biso   1.000  O
  O35      1.0000 0.27749  0.42180  0.57597  Biso   1.000  O
  O36      1.0000 0.57008  0.58748  0.41029  Biso   1.000  O
  O37      1.0000 0.40439  0.58748  0.57597  Biso   1.000  O
  O38      1.0000 0.57008  0.29489  0.41029  Biso   1.000  O
  O39      1.0000 0.27749  0.58748  0.57597  Biso   1.000  O
  O40      1.0000 0.57008  0.42180  0.28339  Biso   1.000  O
  O41      1.0000 0.84860  0.03169  0.14709  Biso   1.000  O
  O42      1.0000 0.01428  0.86601  0.85450  Biso   1.000  O
  O43      1.0000 0.84860  0.15860  0.02018  Biso   1.000  O
  O44      1.0000 0.14119  0.86601  0.85450  Biso   1.000  O
  O45      1.0000 0.14119  0.03169  0.85450  Biso   1.000  O
  O46      1.0000 0.84860  0.86601  0.14709  Biso   1.000  O
  O47      1.0000 0.01428  0.15860  0.85450  Biso   1.000  O
  O48      1.0000 0.84860  0.86601  0.02018  Biso   1.000  O
  O49      1.0000 0.84860  0.03169  0.85450  Biso   1.000  O
  O50      1.0000 0.14119  0.86601  0.02018  Biso   1.000  O
  O51      1.0000 0.84860  0.15860  0.85450  Biso   1.000  O
  O52      1.0000 0.01428  0.86601  0.14709  Biso   1.000  O
