data_image0
_cell_length_a       18.3014
_cell_length_b       18.3014
_cell_length_c       18.3014
_cell_angle_alpha    60
_cell_angle_beta     60
_cell_angle_gamma    60

_symmetry_space_group_name_H-M    "P 1"
_symmetry_int_tables_number       1

loop_
  _symmetry_equiv_pos_as_xyz
  'x, y, z'

loop_
  _atom_site_label
  _atom_site_occupancy
  _atom_site_fract_x
  _atom_site_fract_y
  _atom_site_fract_z
  _atom_site_thermal_displace_type
  _atom_site_B_iso_or_equiv
  _atom_site_type_symbol
  Zn1      1.0000 0.20640  0.38080  0.20640  Biso   1.000  Zn
  Zn2      1.0000 0.38080  0.20640  0.20640  Biso   1.000  Zn
  Zn3      1.0000 0.20640  0.20640  0.20640  Biso   1.000  Zn
  Zn4      1.0000 0.20640  0.20640  0.38080  Biso   1.000  Zn
  Zn5      1.0000 0.61920  0.79360  0.79360  Biso   1.000  Zn
  Zn6      1.0000 0.79360  0.61920  0.79360  Biso   1.000  Zn
  Zn7      1.0000 0.79360  0.79360  0.79360  Biso   1.000  Zn
  Zn8      1.0000 0.79360  0.79360  0.61920  Biso   1.000  Zn
  H1       1.0000 0.04850  0.56570  0.04850  Biso   1.000  H
  H2       1.0000 0.56570  0.04850  0.33730  Biso   1.000  H
  H3       1.0000 0.04850  0.33730  0.04850  Biso   1.000  H
  H4       1.0000 0.33730  0.04850  0.56570  Biso   1.000  H
  H5       1.0000 0.04850  0.04850  0.33730  Biso   1.000  H
  H6       1.0000 0.56570  0.33730  0.04850  Biso   1.000  H
  H7       1.0000 0.04850  0.04850  0.56570  Biso   1.000  H
  H8       1.0000 0.33730  0.56570  0.04850  Biso   1.000  H
  H9       1.0000 0.04850  0.33730  0.56570  Biso   1.000  H
  H10      1.0000 0.56570  0.04850  0.04850  Biso   1.000  H
  H11      1.0000 0.04850  0.56570  0.33730  Biso   1.000  H
  H12      1.0000 0.33730  0.04850  0.04850  Biso   1.000  H
  H13      1.0000 0.43430  0.95150  0.95150  Biso   1.000  H
  H14      1.0000 0.95150  0.43430  0.66270  Biso   1.000  H
  H15      1.0000 0.66270  0.95150  0.95150  Biso   1.000  H
  H16      1.0000 0.95150  0.66270  0.43430  Biso   1.000  H
  H17      1.0000 0.95150  0.95150  0.66270  Biso   1.000  H
  H18      1.0000 0.66270  0.43430  0.95150  Biso   1.000  H
  H19      1.0000 0.95150  0.95150  0.43430  Biso   1.000  H
  H20      1.0000 0.43430  0.66270  0.95150  Biso   1.000  H
  H21      1.0000 0.66270  0.95150  0.43430  Biso   1.000  H
  H22      1.0000 0.95150  0.43430  0.95150  Biso   1.000  H
  H23      1.0000 0.43430  0.95150  0.66270  Biso   1.000  H
  H24      1.0000 0.95150  0.66270  0.95150  Biso   1.000  H
  C1       1.0000 0.02640  0.53920  0.02640  Biso   1.000  C
  C2       1.0000 0.53920  0.02640  0.40800  Biso   1.000  C
  C3       1.0000 0.02640  0.40800  0.02640  Biso   1.000  C
  C4       1.0000 0.40800  0.02640  0.53920  Biso   1.000  C
  C5       1.0000 0.02640  0.02640  0.40800  Biso   1.000  C
  C6       1.0000 0.53920  0.40800  0.02640  Biso   1.000  C
  C7       1.0000 0.02640  0.02640  0.53920  Biso   1.000  C
  C8       1.0000 0.40800  0.53920  0.02640  Biso   1.000  C
  C9       1.0000 0.02640  0.40800  0.53920  Biso   1.000  C
  C10      1.0000 0.53920  0.02640  0.02640  Biso   1.000  C
  C11      1.0000 0.02640  0.53920  0.40800  Biso   1.000  C
  C12      1.0000 0.40800  0.02640  0.02640  Biso   1.000  C
  C13      1.0000 0.46080  0.97360  0.97360  Biso   1.000  C
  C14      1.0000 0.97360  0.46080  0.59200  Biso   1.000  C
  C15      1.0000 0.59200  0.97360  0.97360  Biso   1.000  C
  C16      1.0000 0.97360  0.59200  0.46080  Biso   1.000  C
  C17      1.0000 0.97360  0.97360  0.59200  Biso   1.000  C
  C18      1.0000 0.59200  0.46080  0.97360  Biso   1.000  C
  C19      1.0000 0.97360  0.97360  0.46080  Biso   1.000  C
  C20      1.0000 0.46080  0.59200  0.97360  Biso   1.000  C
  C21      1.0000 0.59200  0.97360  0.46080  Biso   1.000  C
  C22      1.0000 0.97360  0.46080  0.97360  Biso   1.000  C
  C23      1.0000 0.46080  0.97360  0.59200  Biso   1.000  C
  C24      1.0000 0.97360  0.59200  0.97360  Biso   1.000  C
  C25      1.0000 0.11050  0.38950  0.11050  Biso   1.000  C
  C26      1.0000 0.05430  0.44570  0.05430  Biso   1.000  C
  C27      1.0000 0.38950  0.11050  0.38950  Biso   1.000  C
  C28      1.0000 0.44570  0.05430  0.44570  Biso   1.000  C
  C29      1.0000 0.11050  0.11050  0.38950  Biso   1.000  C
  C30      1.0000 0.05430  0.05430  0.44570  Biso   1.000  C
  C31      1.0000 0.38950  0.38950  0.11050  Biso   1.000  C
  C32      1.0000 0.44570  0.44570  0.05430  Biso   1.000  C
  C33      1.0000 0.11050  0.38950  0.38950  Biso   1.000  C
  C34      1.0000 0.05430  0.44570  0.44570  Biso   1.000  C
  C35      1.0000 0.38950  0.11050  0.11050  Biso   1.000  C
  C36      1.0000 0.44570  0.05430  0.05430  Biso   1.000  C
  C37      1.0000 0.61050  0.88950  0.88950  Biso   1.000  C
  C38      1.0000 0.55430  0.94570  0.94570  Biso   1.000  C
  C39      1.0000 0.88950  0.61050  0.61050  Biso   1.000  C
  C40      1.0000 0.94570  0.55430  0.55430  Biso   1.000  C
  C41      1.0000 0.88950  0.88950  0.61050  Biso   1.000  C
  C42      1.0000 0.94570  0.94570  0.55430  Biso   1.000  C
  C43      1.0000 0.61050  0.61050  0.88950  Biso   1.000  C
  C44      1.0000 0.55430  0.55430  0.94570  Biso   1.000  C
  C45      1.0000 0.61050  0.88950  0.61050  Biso   1.000  C
  C46      1.0000 0.55430  0.94570  0.55430  Biso   1.000  C
  C47      1.0000 0.88950  0.61050  0.88950  Biso   1.000  C
  C48      1.0000 0.94570  0.55430  0.94570  Biso   1.000  C
  O1       1.0000 0.25000  0.25000  0.25000  Biso   1.000  O
  O2       1.0000 0.75000  0.75000  0.75000  Biso   1.000  O
  O3       1.0000 0.13330  0.42830  0.13330  Biso   1.000  O
  O4       1.0000 0.42830  0.13330  0.30510  Biso   1.000  O
  O5       1.0000 0.13330  0.30510  0.13330  Biso   1.000  O
  O6       1.0000 0.30510  0.13330  0.42830  Biso   1.000  O
  O7       1.0000 0.13330  0.13330  0.30510  Biso   1.000  O
  O8       1.0000 0.42830  0.30510  0.13330  Biso   1.000  O
  O9       1.0000 0.13330  0.13330  0.42830  Biso   1.000  O
  O10      1.0000 0.30510  0.42830  0.13330  Biso   1.000  O
  O11      1.0000 0.13330  0.30510  0.42830  Biso   1.000  O
  O12      1.0000 0.42830  0.13330  0.13330  Biso   1.000  O
  O13      1.0000 0.13330  0.42830  0.30510  Biso   1.000  O
  O14      1.0000 0.30510  0.13330  0.13330  Biso   1.000  O
  O15      1.0000 0.57170  0.86670  0.86670  Biso   1.000  O
  O16      1.0000 0.86670  0.57170  0.69490  Biso   1.000  O
  O17      1.0000 0.69490  0.86670  0.86670  Biso   1.000  O
  O18      1.0000 0.86670  0.69490  0.57170  Biso   1.000  O
  O19      1.0000 0.86670  0.86670  0.69490  Biso   1.000  O
  O20      1.0000 0.69490  0.57170  0.86670  Biso   1.000  O
  O21      1.0000 0.86670  0.86670  0.57170  Biso   1.000  O
  O22      1.0000 0.57170  0.69490  0.86670  Biso   1.000  O
  O23      1.0000 0.69490  0.86670  0.57170  Biso   1.000  O
  O24      1.0000 0.86670  0.57170  0.86670  Biso   1.000  O
  O25      1.0000 0.57170  0.86670  0.69490  Biso   1.000  O
  O26      1.0000 0.86670  0.69490  0.86670  Biso   1.000  O
  Zn9      1.0000 0.07131  0.59467  0.58956  Biso   1.000  Zn
  Zn10     1.0000 0.48708  0.17891  0.00528  Biso   1.000  Zn
  Zn11     1.0000 0.48708  0.00550  0.00528  Biso   1.000  Zn
  Zn12     1.0000 0.07131  0.42126  0.58956  Biso   1.000  Zn
  Zn13     1.0000 0.07105  0.59487  0.41599  Biso   1.000  Zn
  Zn14     1.0000 0.89756  0.59474  0.58977  Biso   1.000  Zn
  Zn15     1.0000 0.48733  0.00530  0.17885  Biso   1.000  Zn
  Zn16     1.0000 0.66083  0.00543  0.00507  Biso   1.000  Zn
  H25      1.0000 0.23748  0.23390  0.44892  Biso   1.000  H
  H26      1.0000 0.22673  0.45428  0.23615  Biso   1.000  H
  H27      1.0000 0.93824  0.23588  0.74982  Biso   1.000  H
  H28      1.0000 0.71288  0.45545  0.75509  Biso   1.000  H
  H29      1.0000 0.23918  0.45485  0.74803  Biso   1.000  H
  H30      1.0000 0.32091  0.84365  0.14593  Biso   1.000  H
  H31      1.0000 0.33166  0.84056  0.35870  Biso   1.000  H
  H32      1.0000 0.62015  0.84725  0.84502  Biso   1.000  H
  H33      1.0000 0.84551  0.84675  0.83975  Biso   1.000  H
  H34      1.0000 0.31920  0.36539  0.84681  Biso   1.000  H
  H35      1.0000 0.32091  0.36627  0.14593  Biso   1.000  H
  H36      1.0000 0.33166  0.14589  0.35870  Biso   1.000  H
  H37      1.0000 0.62014  0.36429  0.84502  Biso   1.000  H
  H38      1.0000 0.84551  0.14472  0.83975  Biso   1.000  H
  H39      1.0000 0.31920  0.14532  0.84681  Biso   1.000  H
  H40      1.0000 0.23748  0.75652  0.44892  Biso   1.000  H
  H41      1.0000 0.22673  0.75961  0.23615  Biso   1.000  H
  H42      1.0000 0.93824  0.75292  0.74982  Biso   1.000  H
  H43      1.0000 0.71288  0.75342  0.75509  Biso   1.000  H
  H44      1.0000 0.23919  0.23478  0.74803  Biso   1.000  H
  H45      1.0000 0.71674  0.75522  0.44961  Biso   1.000  H
  H46      1.0000 0.92867  0.75792  0.23227  Biso   1.000  H
  H47      1.0000 0.84164  0.84495  0.14523  Biso   1.000  H
  H48      1.0000 0.62972  0.84225  0.36257  Biso   1.000  H
  C49      1.0000 0.16587  0.41161  0.41042  Biso   1.000  C
  C50      1.0000 0.22415  0.35492  0.35034  Biso   1.000  C
  C51      1.0000 0.25628  0.26026  0.38695  Biso   1.000  C
  C52      1.0000 0.24761  0.39242  0.26161  Biso   1.000  C
  C53      1.0000 0.89000  0.41278  0.68556  Biso   1.000  C
  C54      1.0000 0.83322  0.35738  0.74216  Biso   1.000  C
  C55      1.0000 0.87648  0.26143  0.76723  Biso   1.000  C
  C56      1.0000 0.74033  0.39378  0.77061  Biso   1.000  C
  C57      1.0000 0.25539  0.39309  0.76743  Biso   1.000  C
  C58      1.0000 0.39251  0.91128  0.18442  Biso   1.000  C
  C59      1.0000 0.33424  0.85280  0.24450  Biso   1.000  C
  C60      1.0000 0.30211  0.82684  0.20790  Biso   1.000  C
  C61      1.0000 0.31077  0.82505  0.33323  Biso   1.000  C
  C62      1.0000 0.66838  0.91169  0.90928  Biso   1.000  C
  C63      1.0000 0.72517  0.85610  0.85268  Biso   1.000  C
  C64      1.0000 0.68191  0.82845  0.82762  Biso   1.000  C
  C65      1.0000 0.81806  0.82806  0.82423  Biso   1.000  C
  C66      1.0000 0.30299  0.33923  0.82742  Biso   1.000  C
  C67      1.0000 0.39252  0.18856  0.18442  Biso   1.000  C
  C68      1.0000 0.33424  0.24525  0.24450  Biso   1.000  C
  C69      1.0000 0.30211  0.33991  0.20790  Biso   1.000  C
  C70      1.0000 0.31077  0.20775  0.33323  Biso   1.000  C
  C71      1.0000 0.66839  0.18739  0.90928  Biso   1.000  C
  C72      1.0000 0.72517  0.24278  0.85268  Biso   1.000  C
  C73      1.0000 0.68190  0.33873  0.82762  Biso   1.000  C
  C74      1.0000 0.81806  0.20639  0.82423  Biso   1.000  C
  C75      1.0000 0.30299  0.20708  0.82742  Biso   1.000  C
  C76      1.0000 0.16587  0.68889  0.41042  Biso   1.000  C
  C77      1.0000 0.22415  0.74737  0.35034  Biso   1.000  C
  C78      1.0000 0.25627  0.77333  0.38695  Biso   1.000  C
  C79      1.0000 0.24762  0.77512  0.26161  Biso   1.000  C
  C80      1.0000 0.89000  0.68848  0.68556  Biso   1.000  C
  C81      1.0000 0.83322  0.74407  0.74216  Biso   1.000  C
  C82      1.0000 0.87648  0.77172  0.76723  Biso   1.000  C
  C83      1.0000 0.74033  0.77211  0.77061  Biso   1.000  C
  C84      1.0000 0.25540  0.26094  0.76742  Biso   1.000  C
  C85      1.0000 0.89178  0.69058  0.40386  Biso   1.000  C
  C86      1.0000 0.83290  0.74638  0.35114  Biso   1.000  C
  C87      1.0000 0.74320  0.77283  0.38794  Biso   1.000  C
  C88      1.0000 0.86671  0.77522  0.25962  Biso   1.000  C
  C89      1.0000 0.16509  0.41567  0.68039  Biso   1.000  C
  C90      1.0000 0.22317  0.35579  0.74206  Biso   1.000  C
  C91      1.0000 0.66661  0.90959  0.19099  Biso   1.000  C
  C92      1.0000 0.72549  0.85379  0.24371  Biso   1.000  C
  C93      1.0000 0.81519  0.82734  0.20690  Biso   1.000  C
  C94      1.0000 0.69168  0.82495  0.33522  Biso   1.000  C
  C95      1.0000 0.39330  0.18450  0.91445  Biso   1.000  C
  C96      1.0000 0.33522  0.24438  0.85278  Biso   1.000  C
  O27      1.0000 0.14389  0.49684  0.36715  Biso   1.000  O
  O28      1.0000 0.14628  0.37132  0.49268  Biso   1.000  O
  O29      1.0000 0.84932  0.49792  0.66039  Biso   1.000  O
  O30      1.0000 0.97384  0.37280  0.66318  Biso   1.000  O
  O31      1.0000 0.14420  0.49822  0.66089  Biso   1.000  O
  O32      1.0000 0.41450  0.93127  0.22769  Biso   1.000  O
  O33      1.0000 0.41210  0.93366  0.10216  Biso   1.000  O
  O34      1.0000 0.70906  0.93099  0.93445  Biso   1.000  O
  O35      1.0000 0.58455  0.93318  0.93166  Biso   1.000  O
  O36      1.0000 0.41418  0.22667  0.93395  Biso   1.000  O
  O37      1.0000 0.41450  0.10333  0.22769  Biso   1.000  O
  O38      1.0000 0.41210  0.22885  0.10216  Biso   1.000  O
  O39      1.0000 0.70906  0.10225  0.93445  Biso   1.000  O
  O40      1.0000 0.58455  0.22737  0.93166  Biso   1.000  O
  O41      1.0000 0.41418  0.10195  0.93395  Biso   1.000  O
  O42      1.0000 0.14389  0.66890  0.36715  Biso   1.000  O
  O43      1.0000 0.14628  0.66651  0.49268  Biso   1.000  O
  O44      1.0000 0.84933  0.66918  0.66039  Biso   1.000  O
  O45      1.0000 0.97384  0.66699  0.66318  Biso   1.000  O
  O46      1.0000 0.14420  0.37350  0.66089  Biso   1.000  O
  O47      1.0000 0.02784  0.55153  0.54590  Biso   1.000  O
  O48      1.0000 0.97363  0.66751  0.36815  Biso   1.000  O
  O49      1.0000 0.85061  0.66909  0.48801  Biso   1.000  O
  O50      1.0000 0.53055  0.04864  0.04894  Biso   1.000  O
  O51      1.0000 0.58476  0.93266  0.22670  Biso   1.000  O
  O52      1.0000 0.70778  0.93108  0.10683  Biso   1.000  O
