data_image0
_cell_length_a       18.3014
_cell_length_b       18.3014
_cell_length_c       18.3014
_cell_angle_alpha    60
_cell_angle_beta     60
_cell_angle_gamma    60

_symmetry_space_group_name_H-M    "P 1"
_symmetry_int_tables_number       1

loop_
  _symmetry_equiv_pos_as_xyz
  'x, y, z'

loop_
  _atom_site_label
  _atom_site_occupancy
  _atom_site_fract_x
  _atom_site_fract_y
  _atom_site_fract_z
  _atom_site_thermal_displace_type
  _atom_site_B_iso_or_equiv
  _atom_site_type_symbol
  Zn1      1.0000 0.20640  0.38080  0.20640  Biso   1.000  Zn
  Zn2      1.0000 0.38080  0.20640  0.20640  Biso   1.000  Zn
  Zn3      1.0000 0.20640  0.20640  0.20640  Biso   1.000  Zn
  Zn4      1.0000 0.20640  0.20640  0.38080  Biso   1.000  Zn
  Zn5      1.0000 0.61920  0.79360  0.79360  Biso   1.000  Zn
  Zn6      1.0000 0.79360  0.61920  0.79360  Biso   1.000  Zn
  Zn7      1.0000 0.79360  0.79360  0.79360  Biso   1.000  Zn
  Zn8      1.0000 0.79360  0.79360  0.61920  Biso   1.000  Zn
  H1       1.0000 0.04850  0.56570  0.04850  Biso   1.000  H
  H2       1.0000 0.56570  0.04850  0.33730  Biso   1.000  H
  H3       1.0000 0.04850  0.33730  0.04850  Biso   1.000  H
  H4       1.0000 0.33730  0.04850  0.56570  Biso   1.000  H
  H5       1.0000 0.04850  0.04850  0.33730  Biso   1.000  H
  H6       1.0000 0.56570  0.33730  0.04850  Biso   1.000  H
  H7       1.0000 0.04850  0.04850  0.56570  Biso   1.000  H
  H8       1.0000 0.33730  0.56570  0.04850  Biso   1.000  H
  H9       1.0000 0.04850  0.33730  0.56570  Biso   1.000  H
  H10      1.0000 0.56570  0.04850  0.04850  Biso   1.000  H
  H11      1.0000 0.04850  0.56570  0.33730  Biso   1.000  H
  H12      1.0000 0.33730  0.04850  0.04850  Biso   1.000  H
  H13      1.0000 0.43430  0.95150  0.95150  Biso   1.000  H
  H14      1.0000 0.95150  0.43430  0.66270  Biso   1.000  H
  H15      1.0000 0.66270  0.95150  0.95150  Biso   1.000  H
  H16      1.0000 0.95150  0.66270  0.43430  Biso   1.000  H
  H17      1.0000 0.95150  0.95150  0.66270  Biso   1.000  H
  H18      1.0000 0.66270  0.43430  0.95150  Biso   1.000  H
  H19      1.0000 0.95150  0.95150  0.43430  Biso   1.000  H
  H20      1.0000 0.43430  0.66270  0.95150  Biso   1.000  H
  H21      1.0000 0.66270  0.95150  0.43430  Biso   1.000  H
  H22      1.0000 0.95150  0.43430  0.95150  Biso   1.000  H
  H23      1.0000 0.43430  0.95150  0.66270  Biso   1.000  H
  H24      1.0000 0.95150  0.66270  0.95150  Biso   1.000  H
  C1       1.0000 0.02640  0.53920  0.02640  Biso   1.000  C
  C2       1.0000 0.53920  0.02640  0.40800  Biso   1.000  C
  C3       1.0000 0.02640  0.40800  0.02640  Biso   1.000  C
  C4       1.0000 0.40800  0.02640  0.53920  Biso   1.000  C
  C5       1.0000 0.02640  0.02640  0.40800  Biso   1.000  C
  C6       1.0000 0.53920  0.40800  0.02640  Biso   1.000  C
  C7       1.0000 0.02640  0.02640  0.53920  Biso   1.000  C
  C8       1.0000 0.40800  0.53920  0.02640  Biso   1.000  C
  C9       1.0000 0.02640  0.40800  0.53920  Biso   1.000  C
  C10      1.0000 0.53920  0.02640  0.02640  Biso   1.000  C
  C11      1.0000 0.02640  0.53920  0.40800  Biso   1.000  C
  C12      1.0000 0.40800  0.02640  0.02640  Biso   1.000  C
  C13      1.0000 0.46080  0.97360  0.97360  Biso   1.000  C
  C14      1.0000 0.97360  0.46080  0.59200  Biso   1.000  C
  C15      1.0000 0.59200  0.97360  0.97360  Biso   1.000  C
  C16      1.0000 0.97360  0.59200  0.46080  Biso   1.000  C
  C17      1.0000 0.97360  0.97360  0.59200  Biso   1.000  C
  C18      1.0000 0.59200  0.46080  0.97360  Biso   1.000  C
  C19      1.0000 0.97360  0.97360  0.46080  Biso   1.000  C
  C20      1.0000 0.46080  0.59200  0.97360  Biso   1.000  C
  C21      1.0000 0.59200  0.97360  0.46080  Biso   1.000  C
  C22      1.0000 0.97360  0.46080  0.97360  Biso   1.000  C
  C23      1.0000 0.46080  0.97360  0.59200  Biso   1.000  C
  C24      1.0000 0.97360  0.59200  0.97360  Biso   1.000  C
  C25      1.0000 0.11050  0.38950  0.11050  Biso   1.000  C
  C26      1.0000 0.05430  0.44570  0.05430  Biso   1.000  C
  C27      1.0000 0.38950  0.11050  0.38950  Biso   1.000  C
  C28      1.0000 0.44570  0.05430  0.44570  Biso   1.000  C
  C29      1.0000 0.11050  0.11050  0.38950  Biso   1.000  C
  C30      1.0000 0.05430  0.05430  0.44570  Biso   1.000  C
  C31      1.0000 0.38950  0.38950  0.11050  Biso   1.000  C
  C32      1.0000 0.44570  0.44570  0.05430  Biso   1.000  C
  C33      1.0000 0.11050  0.38950  0.38950  Biso   1.000  C
  C34      1.0000 0.05430  0.44570  0.44570  Biso   1.000  C
  C35      1.0000 0.38950  0.11050  0.11050  Biso   1.000  C
  C36      1.0000 0.44570  0.05430  0.05430  Biso   1.000  C
  C37      1.0000 0.61050  0.88950  0.88950  Biso   1.000  C
  C38      1.0000 0.55430  0.94570  0.94570  Biso   1.000  C
  C39      1.0000 0.88950  0.61050  0.61050  Biso   1.000  C
  C40      1.0000 0.94570  0.55430  0.55430  Biso   1.000  C
  C41      1.0000 0.88950  0.88950  0.61050  Biso   1.000  C
  C42      1.0000 0.94570  0.94570  0.55430  Biso   1.000  C
  C43      1.0000 0.61050  0.61050  0.88950  Biso   1.000  C
  C44      1.0000 0.55430  0.55430  0.94570  Biso   1.000  C
  C45      1.0000 0.61050  0.88950  0.61050  Biso   1.000  C
  C46      1.0000 0.55430  0.94570  0.55430  Biso   1.000  C
  C47      1.0000 0.88950  0.61050  0.88950  Biso   1.000  C
  C48      1.0000 0.94570  0.55430  0.94570  Biso   1.000  C
  O1       1.0000 0.25000  0.25000  0.25000  Biso   1.000  O
  O2       1.0000 0.75000  0.75000  0.75000  Biso   1.000  O
  O3       1.0000 0.13330  0.42830  0.13330  Biso   1.000  O
  O4       1.0000 0.42830  0.13330  0.30510  Biso   1.000  O
  O5       1.0000 0.13330  0.30510  0.13330  Biso   1.000  O
  O6       1.0000 0.30510  0.13330  0.42830  Biso   1.000  O
  O7       1.0000 0.13330  0.13330  0.30510  Biso   1.000  O
  O8       1.0000 0.42830  0.30510  0.13330  Biso   1.000  O
  O9       1.0000 0.13330  0.13330  0.42830  Biso   1.000  O
  O10      1.0000 0.30510  0.42830  0.13330  Biso   1.000  O
  O11      1.0000 0.13330  0.30510  0.42830  Biso   1.000  O
  O12      1.0000 0.42830  0.13330  0.13330  Biso   1.000  O
  O13      1.0000 0.13330  0.42830  0.30510  Biso   1.000  O
  O14      1.0000 0.30510  0.13330  0.13330  Biso   1.000  O
  O15      1.0000 0.57170  0.86670  0.86670  Biso   1.000  O
  O16      1.0000 0.86670  0.57170  0.69490  Biso   1.000  O
  O17      1.0000 0.69490  0.86670  0.86670  Biso   1.000  O
  O18      1.0000 0.86670  0.69490  0.57170  Biso   1.000  O
  O19      1.0000 0.86670  0.86670  0.69490  Biso   1.000  O
  O20      1.0000 0.69490  0.57170  0.86670  Biso   1.000  O
  O21      1.0000 0.86670  0.86670  0.57170  Biso   1.000  O
  O22      1.0000 0.57170  0.69490  0.86670  Biso   1.000  O
  O23      1.0000 0.69490  0.86670  0.57170  Biso   1.000  O
  O24      1.0000 0.86670  0.57170  0.86670  Biso   1.000  O
  O25      1.0000 0.57170  0.86670  0.69490  Biso   1.000  O
  O26      1.0000 0.86670  0.69490  0.86670  Biso   1.000  O
  Zn9      1.0000 0.59335  0.07575  0.72129  Biso   1.000  Zn
  Zn10     1.0000 0.59335  0.25102  0.72129  Biso   1.000  Zn
  Zn11     1.0000 0.41808  0.25102  0.72129  Biso   1.000  Zn
  Zn12     1.0000 0.59335  0.25102  0.54601  Biso   1.000  Zn
  Zn13     1.0000 0.00637  0.66317  0.13343  Biso   1.000  Zn
  Zn14     1.0000 0.00637  0.83844  0.13343  Biso   1.000  Zn
  Zn15     1.0000 0.18165  0.66317  0.13343  Biso   1.000  Zn
  Zn16     1.0000 0.00637  0.66317  0.30871  Biso   1.000  Zn
  H25      1.0000 0.46060  0.89417  0.87846  Biso   1.000  H
  H26      1.0000 0.75052  0.40819  0.58853  Biso   1.000  H
  H27      1.0000 0.23650  0.11826  0.87846  Biso   1.000  H
  H28      1.0000 0.75052  0.40819  0.36443  Biso   1.000  H
  H29      1.0000 0.23650  0.40819  0.58853  Biso   1.000  H
  H30      1.0000 0.75052  0.11826  0.87846  Biso   1.000  H
  H31      1.0000 0.46060  0.40819  0.36443  Biso   1.000  H
  H32      1.0000 0.75052  0.89417  0.87846  Biso   1.000  H
  H33      1.0000 0.75052  0.11826  0.36443  Biso   1.000  H
  H34      1.0000 0.46060  0.40819  0.87846  Biso   1.000  H
  H35      1.0000 0.75052  0.89417  0.58853  Biso   1.000  H
  H36      1.0000 0.23650  0.40819  0.87846  Biso   1.000  H
  H37      1.0000 0.13913  0.50600  0.97626  Biso   1.000  H
  H38      1.0000 0.84920  0.02002  0.26619  Biso   1.000  H
  H39      1.0000 0.36323  0.50600  0.97626  Biso   1.000  H
  H40      1.0000 0.84920  0.79592  0.49029  Biso   1.000  H
  H41      1.0000 0.36323  0.50600  0.26619  Biso   1.000  H
  H42      1.0000 0.84920  0.02002  0.97626  Biso   1.000  H
  H43      1.0000 0.13913  0.50600  0.49029  Biso   1.000  H
  H44      1.0000 0.84920  0.79592  0.97626  Biso   1.000  H
  H45      1.0000 0.84920  0.50600  0.49029  Biso   1.000  H
  H46      1.0000 0.13913  0.02002  0.97626  Biso   1.000  H
  H47      1.0000 0.84920  0.50600  0.26619  Biso   1.000  H
  H48      1.0000 0.36323  0.79592  0.97626  Biso   1.000  H
  C49      1.0000 0.39137  0.91738  0.90147  Biso   1.000  C
  C50      1.0000 0.77353  0.43120  0.51930  Biso   1.000  C
  C51      1.0000 0.25971  0.04903  0.90147  Biso   1.000  C
  C52      1.0000 0.77353  0.43120  0.38764  Biso   1.000  C
  C53      1.0000 0.25971  0.43120  0.51930  Biso   1.000  C
  C54      1.0000 0.77353  0.04903  0.90147  Biso   1.000  C
  C55      1.0000 0.39137  0.43120  0.38764  Biso   1.000  C
  C56      1.0000 0.77353  0.91738  0.90147  Biso   1.000  C
  C57      1.0000 0.77353  0.04903  0.38764  Biso   1.000  C
  C58      1.0000 0.39137  0.43120  0.90147  Biso   1.000  C
  C59      1.0000 0.77353  0.91738  0.51930  Biso   1.000  C
  C60      1.0000 0.25971  0.43120  0.90147  Biso   1.000  C
  C61      1.0000 0.20836  0.48299  0.95325  Biso   1.000  C
  C62      1.0000 0.82619  0.99681  0.33542  Biso   1.000  C
  C63      1.0000 0.34002  0.48299  0.95325  Biso   1.000  C
  C64      1.0000 0.82619  0.86515  0.46708  Biso   1.000  C
  C65      1.0000 0.34002  0.48299  0.33542  Biso   1.000  C
  C66      1.0000 0.82619  0.99681  0.95325  Biso   1.000  C
  C67      1.0000 0.20836  0.48299  0.46708  Biso   1.000  C
  C68      1.0000 0.82619  0.86515  0.95325  Biso   1.000  C
  C69      1.0000 0.82619  0.48299  0.46708  Biso   1.000  C
  C70      1.0000 0.20836  0.99681  0.95325  Biso   1.000  C
  C71      1.0000 0.82619  0.48299  0.33542  Biso   1.000  C
  C72      1.0000 0.34002  0.86515  0.95325  Biso   1.000  C
  C73      1.0000 0.40797  0.06564  0.81903  Biso   1.000  C
  C74      1.0000 0.35445  0.01212  0.87256  Biso   1.000  C
  C75      1.0000 0.69110  0.34877  0.53591  Biso   1.000  C
  C76      1.0000 0.74462  0.40229  0.48239  Biso   1.000  C
  C77      1.0000 0.40797  0.34877  0.53591  Biso   1.000  C
  C78      1.0000 0.35445  0.40229  0.48239  Biso   1.000  C
  C79      1.0000 0.69110  0.06564  0.81903  Biso   1.000  C
  C80      1.0000 0.74462  0.01212  0.87256  Biso   1.000  C
  C81      1.0000 0.69110  0.06564  0.53591  Biso   1.000  C
  C82      1.0000 0.74462  0.01212  0.48239  Biso   1.000  C
  C83      1.0000 0.40797  0.34877  0.81903  Biso   1.000  C
  C84      1.0000 0.35445  0.40229  0.87256  Biso   1.000  C
  C85      1.0000 0.19175  0.56542  0.03569  Biso   1.000  C
  C86      1.0000 0.24528  0.51190  0.98217  Biso   1.000  C
  C87      1.0000 0.90863  0.84855  0.31881  Biso   1.000  C
  C88      1.0000 0.85511  0.90207  0.37234  Biso   1.000  C
  C89      1.0000 0.19175  0.56542  0.31881  Biso   1.000  C
  C90      1.0000 0.24528  0.51190  0.37234  Biso   1.000  C
  C91      1.0000 0.90863  0.84855  0.03569  Biso   1.000  C
  C92      1.0000 0.85511  0.90207  0.98217  Biso   1.000  C
  C93      1.0000 0.90863  0.56542  0.31881  Biso   1.000  C
  C94      1.0000 0.85511  0.51190  0.37234  Biso   1.000  C
  C95      1.0000 0.19175  0.84855  0.03569  Biso   1.000  C
  C96      1.0000 0.24528  0.90207  0.98217  Biso   1.000  C
  O27      1.0000 0.54954  0.20720  0.67747  Biso   1.000  O
  O28      1.0000 0.05019  0.70698  0.17725  Biso   1.000  O
  O29      1.0000 0.49461  0.02983  0.79362  Biso   1.000  O
  O30      1.0000 0.66569  0.32335  0.62255  Biso   1.000  O
  O31      1.0000 0.37216  0.15228  0.79362  Biso   1.000  O
  O32      1.0000 0.66569  0.32335  0.50009  Biso   1.000  O
  O33      1.0000 0.37216  0.32335  0.62255  Biso   1.000  O
  O34      1.0000 0.66569  0.15228  0.79362  Biso   1.000  O
  O35      1.0000 0.49461  0.32335  0.50009  Biso   1.000  O
  O36      1.0000 0.66569  0.02983  0.79362  Biso   1.000  O
  O37      1.0000 0.66569  0.15228  0.50009  Biso   1.000  O
  O38      1.0000 0.49461  0.32335  0.79362  Biso   1.000  O
  O39      1.0000 0.66569  0.02983  0.62255  Biso   1.000  O
  O40      1.0000 0.37216  0.32335  0.79362  Biso   1.000  O
  O41      1.0000 0.10512  0.59083  0.06110  Biso   1.000  O
  O42      1.0000 0.93404  0.88436  0.23218  Biso   1.000  O
  O43      1.0000 0.22757  0.59083  0.06110  Biso   1.000  O
  O44      1.0000 0.93404  0.76191  0.35463  Biso   1.000  O
  O45      1.0000 0.22757  0.59083  0.23218  Biso   1.000  O
  O46      1.0000 0.93404  0.88436  0.06110  Biso   1.000  O
  O47      1.0000 0.10512  0.59083  0.35463  Biso   1.000  O
  O48      1.0000 0.93404  0.76191  0.06110  Biso   1.000  O
  O49      1.0000 0.93404  0.59083  0.35463  Biso   1.000  O
  O50      1.0000 0.10512  0.88436  0.06110  Biso   1.000  O
  O51      1.0000 0.93404  0.59083  0.23218  Biso   1.000  O
  O52      1.0000 0.22757  0.76191  0.06110  Biso   1.000  O
