data_image0
_cell_length_a       18.3014
_cell_length_b       18.3014
_cell_length_c       18.3014
_cell_angle_alpha    60
_cell_angle_beta     60
_cell_angle_gamma    60

_symmetry_space_group_name_H-M    "P 1"
_symmetry_int_tables_number       1

loop_
  _symmetry_equiv_pos_as_xyz
  'x, y, z'

loop_
  _atom_site_label
  _atom_site_occupancy
  _atom_site_fract_x
  _atom_site_fract_y
  _atom_site_fract_z
  _atom_site_thermal_displace_type
  _atom_site_B_iso_or_equiv
  _atom_site_type_symbol
  C1       1.0000 0.20640  0.38080  0.20640  Biso   1.000  C
  C2       1.0000 0.38080  0.20640  0.20640  Biso   1.000  C
  C3       1.0000 0.20640  0.20640  0.20640  Biso   1.000  C
  C4       1.0000 0.20640  0.20640  0.38080  Biso   1.000  C
  C5       1.0000 0.61920  0.79360  0.79360  Biso   1.000  C
  C6       1.0000 0.79360  0.61920  0.79360  Biso   1.000  C
  C7       1.0000 0.79360  0.79360  0.79360  Biso   1.000  C
  C8       1.0000 0.79360  0.79360  0.61920  Biso   1.000  C
  C9       1.0000 0.04850  0.56570  0.04850  Biso   1.000  C
  C10      1.0000 0.56570  0.04850  0.33730  Biso   1.000  C
  C11      1.0000 0.04850  0.33730  0.04850  Biso   1.000  C
  C12      1.0000 0.33730  0.04850  0.56570  Biso   1.000  C
  C13      1.0000 0.04850  0.04850  0.33730  Biso   1.000  C
  C14      1.0000 0.56570  0.33730  0.04850  Biso   1.000  C
  C15      1.0000 0.04850  0.04850  0.56570  Biso   1.000  C
  C16      1.0000 0.33730  0.56570  0.04850  Biso   1.000  C
  C17      1.0000 0.04850  0.33730  0.56570  Biso   1.000  C
  C18      1.0000 0.56570  0.04850  0.04850  Biso   1.000  C
  C19      1.0000 0.04850  0.56570  0.33730  Biso   1.000  C
  C20      1.0000 0.33730  0.04850  0.04850  Biso   1.000  C
  C21      1.0000 0.43430  0.95150  0.95150  Biso   1.000  C
  C22      1.0000 0.95150  0.43430  0.66270  Biso   1.000  C
  C23      1.0000 0.66270  0.95150  0.95150  Biso   1.000  C
  C24      1.0000 0.95150  0.66270  0.43430  Biso   1.000  C
  C25      1.0000 0.95150  0.95150  0.66270  Biso   1.000  C
  C26      1.0000 0.66270  0.43430  0.95150  Biso   1.000  C
  C27      1.0000 0.95150  0.95150  0.43430  Biso   1.000  C
  C28      1.0000 0.43430  0.66270  0.95150  Biso   1.000  C
  C29      1.0000 0.66270  0.95150  0.43430  Biso   1.000  C
  C30      1.0000 0.95150  0.43430  0.95150  Biso   1.000  C
  C31      1.0000 0.43430  0.95150  0.66270  Biso   1.000  C
  C32      1.0000 0.95150  0.66270  0.95150  Biso   1.000  C
  C33      1.0000 0.02640  0.53920  0.02640  Biso   1.000  C
  C34      1.0000 0.53920  0.02640  0.40800  Biso   1.000  C
  C35      1.0000 0.02640  0.40800  0.02640  Biso   1.000  C
  C36      1.0000 0.40800  0.02640  0.53920  Biso   1.000  C
  C37      1.0000 0.02640  0.02640  0.40800  Biso   1.000  C
  C38      1.0000 0.53920  0.40800  0.02640  Biso   1.000  C
  C39      1.0000 0.02640  0.02640  0.53920  Biso   1.000  C
  C40      1.0000 0.40800  0.53920  0.02640  Biso   1.000  C
  C41      1.0000 0.02640  0.40800  0.53920  Biso   1.000  C
  C42      1.0000 0.53920  0.02640  0.02640  Biso   1.000  C
  C43      1.0000 0.02640  0.53920  0.40800  Biso   1.000  C
  C44      1.0000 0.40800  0.02640  0.02640  Biso   1.000  C
  C45      1.0000 0.46080  0.97360  0.97360  Biso   1.000  C
  C46      1.0000 0.97360  0.46080  0.59200  Biso   1.000  C
  C47      1.0000 0.59200  0.97360  0.97360  Biso   1.000  C
  C48      1.0000 0.97360  0.59200  0.46080  Biso   1.000  C
  C49      1.0000 0.97360  0.97360  0.59200  Biso   1.000  C
  C50      1.0000 0.59200  0.46080  0.97360  Biso   1.000  C
  C51      1.0000 0.97360  0.97360  0.46080  Biso   1.000  C
  C52      1.0000 0.46080  0.59200  0.97360  Biso   1.000  C
  C53      1.0000 0.59200  0.97360  0.46080  Biso   1.000  C
  C54      1.0000 0.97360  0.46080  0.97360  Biso   1.000  C
  C55      1.0000 0.46080  0.97360  0.59200  Biso   1.000  C
  C56      1.0000 0.97360  0.59200  0.97360  Biso   1.000  C
  C57      1.0000 0.11050  0.38950  0.11050  Biso   1.000  C
  C58      1.0000 0.05430  0.44570  0.05430  Biso   1.000  C
  C59      1.0000 0.38950  0.11050  0.38950  Biso   1.000  C
  C60      1.0000 0.44570  0.05430  0.44570  Biso   1.000  C
  C61      1.0000 0.11050  0.11050  0.38950  Biso   1.000  C
  C62      1.0000 0.05430  0.05430  0.44570  Biso   1.000  C
  C63      1.0000 0.38950  0.38950  0.11050  Biso   1.000  C
  C64      1.0000 0.44570  0.44570  0.05430  Biso   1.000  C
  C65      1.0000 0.11050  0.38950  0.38950  Biso   1.000  C
  C66      1.0000 0.05430  0.44570  0.44570  Biso   1.000  C
  C67      1.0000 0.38950  0.11050  0.11050  Biso   1.000  C
  C68      1.0000 0.44570  0.05430  0.05430  Biso   1.000  C
  C69      1.0000 0.61050  0.88950  0.88950  Biso   1.000  C
  C70      1.0000 0.55430  0.94570  0.94570  Biso   1.000  C
  C71      1.0000 0.88950  0.61050  0.61050  Biso   1.000  C
  C72      1.0000 0.94570  0.55430  0.55430  Biso   1.000  C
  C73      1.0000 0.88950  0.88950  0.61050  Biso   1.000  C
  C74      1.0000 0.94570  0.94570  0.55430  Biso   1.000  C
  C75      1.0000 0.61050  0.61050  0.88950  Biso   1.000  C
  C76      1.0000 0.55430  0.55430  0.94570  Biso   1.000  C
  C77      1.0000 0.61050  0.88950  0.61050  Biso   1.000  C
  C78      1.0000 0.55430  0.94570  0.55430  Biso   1.000  C
  C79      1.0000 0.88950  0.61050  0.88950  Biso   1.000  C
  C80      1.0000 0.94570  0.55430  0.94570  Biso   1.000  C
  C81      1.0000 0.25000  0.25000  0.25000  Biso   1.000  C
  C82      1.0000 0.75000  0.75000  0.75000  Biso   1.000  C
  C83      1.0000 0.13330  0.42830  0.13330  Biso   1.000  C
  C84      1.0000 0.42830  0.13330  0.30510  Biso   1.000  C
  C85      1.0000 0.13330  0.30510  0.13330  Biso   1.000  C
  C86      1.0000 0.30510  0.13330  0.42830  Biso   1.000  C
  C87      1.0000 0.13330  0.13330  0.30510  Biso   1.000  C
  C88      1.0000 0.42830  0.30510  0.13330  Biso   1.000  C
  C89      1.0000 0.13330  0.13330  0.42830  Biso   1.000  C
  C90      1.0000 0.30510  0.42830  0.13330  Biso   1.000  C
  C91      1.0000 0.13330  0.30510  0.42830  Biso   1.000  C
  C92      1.0000 0.42830  0.13330  0.13330  Biso   1.000  C
  C93      1.0000 0.13330  0.42830  0.30510  Biso   1.000  C
  C94      1.0000 0.30510  0.13330  0.13330  Biso   1.000  C
  C95      1.0000 0.57170  0.86670  0.86670  Biso   1.000  C
  C96      1.0000 0.86670  0.57170  0.69490  Biso   1.000  C
  C97      1.0000 0.69490  0.86670  0.86670  Biso   1.000  C
  C98      1.0000 0.86670  0.69490  0.57170  Biso   1.000  C
  C99      1.0000 0.86670  0.86670  0.69490  Biso   1.000  C
  C100     1.0000 0.69490  0.57170  0.86670  Biso   1.000  C
  C101     1.0000 0.86670  0.86670  0.57170  Biso   1.000  C
  C102     1.0000 0.57170  0.69490  0.86670  Biso   1.000  C
  C103     1.0000 0.69490  0.86670  0.57170  Biso   1.000  C
  C104     1.0000 0.86670  0.57170  0.86670  Biso   1.000  C
  C105     1.0000 0.57170  0.86670  0.69490  Biso   1.000  C
  C106     1.0000 0.86670  0.69490  0.86670  Biso   1.000  C
  O1       1.0000 0.90764  0.59493  0.58970  Biso   1.000  O
  O2       1.0000 0.32303  0.17942  0.00528  Biso   1.000  O
  O3       1.0000 0.32303  0.00550  0.00528  Biso   1.000  O
  O4       1.0000 0.90764  0.42100  0.58970  Biso   1.000  O
  O5       1.0000 0.90719  0.59527  0.41553  Biso   1.000  O
  O6       1.0000 0.73332  0.59508  0.58980  Biso   1.000  O
  O7       1.0000 0.32349  0.00516  0.17945  Biso   1.000  O
  O8       1.0000 0.49735  0.00535  0.00518  Biso   1.000  O
  O9       1.0000 0.07532  0.23692  0.44690  Biso   1.000  O
  O10      1.0000 0.06357  0.45600  0.23632  Biso   1.000  O
  O11      1.0000 0.77309  0.23799  0.74899  Biso   1.000  O
  O12      1.0000 0.55131  0.45349  0.75128  Biso   1.000  O
  O13      1.0000 0.07612  0.45548  0.74651  Biso   1.000  O
  O14      1.0000 0.15536  0.84627  0.14808  Biso   1.000  O
  O15      1.0000 0.16711  0.84308  0.35867  Biso   1.000  O
  O16      1.0000 0.45758  0.84718  0.84599  Biso   1.000  O
  O17      1.0000 0.67936  0.84320  0.84370  Biso   1.000  O
  O18      1.0000 0.15455  0.36522  0.84848  Biso   1.000  O
  O19      1.0000 0.15536  0.36351  0.14808  Biso   1.000  O
  O20      1.0000 0.16711  0.14443  0.35867  Biso   1.000  O
  O21      1.0000 0.45758  0.36243  0.84599  Biso   1.000  O
  O22      1.0000 0.67937  0.14694  0.84370  Biso   1.000  O
  O23      1.0000 0.15455  0.14495  0.84848  Biso   1.000  O
  O24      1.0000 0.07531  0.75416  0.44690  Biso   1.000  O
  O25      1.0000 0.06357  0.75735  0.23632  Biso   1.000  O
  O26      1.0000 0.77309  0.75325  0.74899  Biso   1.000  O
  O27      1.0000 0.55131  0.75723  0.75128  Biso   1.000  O
  O28      1.0000 0.07613  0.23521  0.74651  Biso   1.000  O
  O29      1.0000 0.55219  0.75605  0.44899  Biso   1.000  O
  O30      1.0000 0.76491  0.75715  0.23403  Biso   1.000  O
  O31      1.0000 0.67848  0.84438  0.14600  Biso   1.000  O
  O32      1.0000 0.46576  0.84328  0.36095  Biso   1.000  O
  O33      1.0000 0.00142  0.41253  0.41069  Biso   1.000  O
  O34      1.0000 0.06069  0.35475  0.34981  Biso   1.000  O
  O35      1.0000 0.09302  0.26248  0.38503  Biso   1.000  O
  O36      1.0000 0.08286  0.39424  0.26218  Biso   1.000  O
  O37      1.0000 0.72386  0.41570  0.68633  Biso   1.000  O
  O38      1.0000 0.67006  0.35751  0.74133  Biso   1.000  O
  O39      1.0000 0.71124  0.26405  0.76690  Biso   1.000  O
  O40      1.0000 0.57886  0.39182  0.76869  Biso   1.000  O
  O41      1.0000 0.09194  0.39371  0.76650  Biso   1.000  O
  O42      1.0000 0.22926  0.91181  0.18429  Biso   1.000  O
  O43      1.0000 0.16998  0.85243  0.24517  Biso   1.000  O
  O44      1.0000 0.13766  0.82767  0.20996  Biso   1.000  O
  O45      1.0000 0.14781  0.82647  0.33280  Biso   1.000  O
  O46      1.0000 0.50682  0.91302  0.90866  Biso   1.000  O
  O47      1.0000 0.56062  0.85603  0.85365  Biso   1.000  O
  O48      1.0000 0.51944  0.82928  0.82808  Biso   1.000  O
  O49      1.0000 0.65181  0.82649  0.82629  Biso   1.000  O
  O50      1.0000 0.13873  0.33926  0.82848  Biso   1.000  O
  O51      1.0000 0.22926  0.18790  0.18429  Biso   1.000  O
  O52      1.0000 0.16999  0.24568  0.24517  Biso   1.000  O
  O53      1.0000 0.13766  0.33795  0.20996  Biso   1.000  O
  O54      1.0000 0.14781  0.20619  0.33280  Biso   1.000  O
  O55      1.0000 0.50682  0.18473  0.90866  Biso   1.000  O
  O56      1.0000 0.56062  0.24291  0.85365  Biso   1.000  O
  O57      1.0000 0.51944  0.33638  0.82808  Biso   1.000  O
  O58      1.0000 0.65182  0.20860  0.82629  Biso   1.000  O
  O59      1.0000 0.13874  0.20671  0.82848  Biso   1.000  O
  O60      1.0000 0.00142  0.68862  0.41069  Biso   1.000  O
  O61      1.0000 0.06069  0.74800  0.34981  Biso   1.000  O
  O62      1.0000 0.09301  0.77276  0.38503  Biso   1.000  O
  O63      1.0000 0.08287  0.77396  0.26218  Biso   1.000  O
  O64      1.0000 0.72386  0.68741  0.68633  Biso   1.000  O
  O65      1.0000 0.67006  0.74440  0.74133  Biso   1.000  O
  O66      1.0000 0.71123  0.77115  0.76690  Biso   1.000  O
  O67      1.0000 0.57886  0.77393  0.76869  Biso   1.000  O
  O68      1.0000 0.09194  0.26117  0.76650  Biso   1.000  O
  O69      1.0000 0.73051  0.68942  0.40393  Biso   1.000  O
  O70      1.0000 0.66865  0.74631  0.35200  Biso   1.000  O
  O71      1.0000 0.57924  0.77336  0.38731  Biso   1.000  O
  O72      1.0000 0.70315  0.77456  0.26098  Biso   1.000  O
  O73      1.0000 0.99994  0.41749  0.67837  Biso   1.000  O
  O74      1.0000 0.05961  0.35612  0.74143  Biso   1.000  O
  O75      1.0000 0.50017  0.91101  0.19106  Biso   1.000  O
  O76      1.0000 0.56203  0.85412  0.24298  Biso   1.000  O
  O77      1.0000 0.65144  0.82707  0.20767  Biso   1.000  O
  O78      1.0000 0.52752  0.82587  0.33400  Biso   1.000  O
  O79      1.0000 0.23074  0.18294  0.91661  Biso   1.000  O
  O80      1.0000 0.17106  0.24431  0.85355  Biso   1.000  O
  O81      1.0000 0.98143  0.49747  0.36503  Biso   1.000  O
  O82      1.0000 0.98273  0.36886  0.49444  Biso   1.000  O
  O83      1.0000 0.68418  0.49845  0.65997  Biso   1.000  O
  O84      1.0000 0.80969  0.37184  0.66394  Biso   1.000  O
  O85      1.0000 0.98094  0.49944  0.66116  Biso   1.000  O
  O86      1.0000 0.24925  0.93110  0.22995  Biso   1.000  O
  O87      1.0000 0.24795  0.93320  0.10054  Biso   1.000  O
  O88      1.0000 0.54650  0.92972  0.93502  Biso   1.000  O
  O89      1.0000 0.42099  0.93261  0.93104  Biso   1.000  O
  O90      1.0000 0.24973  0.22869  0.93382  Biso   1.000  O
  O91      1.0000 0.24925  0.10296  0.22995  Biso   1.000  O
  O92      1.0000 0.24795  0.23156  0.10054  Biso   1.000  O
  O93      1.0000 0.54650  0.10198  0.93502  Biso   1.000  O
  O94      1.0000 0.42099  0.22859  0.93104  Biso   1.000  O
  O95      1.0000 0.24973  0.10099  0.93382  Biso   1.000  O
  O96      1.0000 0.98143  0.66933  0.36503  Biso   1.000  O
  O97      1.0000 0.98273  0.66723  0.49444  Biso   1.000  O
  O98      1.0000 0.68418  0.67070  0.65997  Biso   1.000  O
  O99      1.0000 0.80969  0.66782  0.66394  Biso   1.000  O
  O100     1.0000 0.98094  0.37174  0.66116  Biso   1.000  O
  O101     1.0000 0.86468  0.55136  0.54587  Biso   1.000  O
  O102     1.0000 0.81087  0.66833  0.36573  Biso   1.000  O
  O103     1.0000 0.68556  0.67061  0.48649  Biso   1.000  O
  O104     1.0000 0.36600  0.04907  0.04911  Biso   1.000  O
  O105     1.0000 0.41981  0.93210  0.22925  Biso   1.000  O
  O106     1.0000 0.54512  0.92981  0.10849  Biso   1.000  O
