data_image0
_cell_length_a       18.3014
_cell_length_b       18.3014
_cell_length_c       18.3014
_cell_angle_alpha    60
_cell_angle_beta     60
_cell_angle_gamma    60

_symmetry_space_group_name_H-M    "P 1"
_symmetry_int_tables_number       1

loop_
  _symmetry_equiv_pos_as_xyz
  'x, y, z'

loop_
  _atom_site_label
  _atom_site_occupancy
  _atom_site_fract_x
  _atom_site_fract_y
  _atom_site_fract_z
  _atom_site_thermal_displace_type
  _atom_site_B_iso_or_equiv
  _atom_site_type_symbol
  Zn1      1.0000 0.20640  0.38080  0.20640  Biso   1.000  Zn
  Zn2      1.0000 0.38080  0.20640  0.20640  Biso   1.000  Zn
  Zn3      1.0000 0.20640  0.20640  0.20640  Biso   1.000  Zn
  Zn4      1.0000 0.20640  0.20640  0.38080  Biso   1.000  Zn
  Zn5      1.0000 0.61920  0.79360  0.79360  Biso   1.000  Zn
  Zn6      1.0000 0.79360  0.61920  0.79360  Biso   1.000  Zn
  Zn7      1.0000 0.79360  0.79360  0.79360  Biso   1.000  Zn
  Zn8      1.0000 0.79360  0.79360  0.61920  Biso   1.000  Zn
  H1       1.0000 0.04850  0.56570  0.04850  Biso   1.000  H
  H2       1.0000 0.56570  0.04850  0.33730  Biso   1.000  H
  H3       1.0000 0.04850  0.33730  0.04850  Biso   1.000  H
  H4       1.0000 0.33730  0.04850  0.56570  Biso   1.000  H
  H5       1.0000 0.04850  0.04850  0.33730  Biso   1.000  H
  H6       1.0000 0.56570  0.33730  0.04850  Biso   1.000  H
  H7       1.0000 0.04850  0.04850  0.56570  Biso   1.000  H
  H8       1.0000 0.33730  0.56570  0.04850  Biso   1.000  H
  H9       1.0000 0.04850  0.33730  0.56570  Biso   1.000  H
  H10      1.0000 0.56570  0.04850  0.04850  Biso   1.000  H
  H11      1.0000 0.04850  0.56570  0.33730  Biso   1.000  H
  H12      1.0000 0.33730  0.04850  0.04850  Biso   1.000  H
  H13      1.0000 0.43430  0.95150  0.95150  Biso   1.000  H
  H14      1.0000 0.95150  0.43430  0.66270  Biso   1.000  H
  H15      1.0000 0.66270  0.95150  0.95150  Biso   1.000  H
  H16      1.0000 0.95150  0.66270  0.43430  Biso   1.000  H
  H17      1.0000 0.95150  0.95150  0.66270  Biso   1.000  H
  H18      1.0000 0.66270  0.43430  0.95150  Biso   1.000  H
  H19      1.0000 0.95150  0.95150  0.43430  Biso   1.000  H
  H20      1.0000 0.43430  0.66270  0.95150  Biso   1.000  H
  H21      1.0000 0.66270  0.95150  0.43430  Biso   1.000  H
  H22      1.0000 0.95150  0.43430  0.95150  Biso   1.000  H
  H23      1.0000 0.43430  0.95150  0.66270  Biso   1.000  H
  H24      1.0000 0.95150  0.66270  0.95150  Biso   1.000  H
  C1       1.0000 0.02640  0.53920  0.02640  Biso   1.000  C
  C2       1.0000 0.53920  0.02640  0.40800  Biso   1.000  C
  C3       1.0000 0.02640  0.40800  0.02640  Biso   1.000  C
  C4       1.0000 0.40800  0.02640  0.53920  Biso   1.000  C
  C5       1.0000 0.02640  0.02640  0.40800  Biso   1.000  C
  C6       1.0000 0.53920  0.40800  0.02640  Biso   1.000  C
  C7       1.0000 0.02640  0.02640  0.53920  Biso   1.000  C
  C8       1.0000 0.40800  0.53920  0.02640  Biso   1.000  C
  C9       1.0000 0.02640  0.40800  0.53920  Biso   1.000  C
  C10      1.0000 0.53920  0.02640  0.02640  Biso   1.000  C
  C11      1.0000 0.02640  0.53920  0.40800  Biso   1.000  C
  C12      1.0000 0.40800  0.02640  0.02640  Biso   1.000  C
  C13      1.0000 0.46080  0.97360  0.97360  Biso   1.000  C
  C14      1.0000 0.97360  0.46080  0.59200  Biso   1.000  C
  C15      1.0000 0.59200  0.97360  0.97360  Biso   1.000  C
  C16      1.0000 0.97360  0.59200  0.46080  Biso   1.000  C
  C17      1.0000 0.97360  0.97360  0.59200  Biso   1.000  C
  C18      1.0000 0.59200  0.46080  0.97360  Biso   1.000  C
  C19      1.0000 0.97360  0.97360  0.46080  Biso   1.000  C
  C20      1.0000 0.46080  0.59200  0.97360  Biso   1.000  C
  C21      1.0000 0.59200  0.97360  0.46080  Biso   1.000  C
  C22      1.0000 0.97360  0.46080  0.97360  Biso   1.000  C
  C23      1.0000 0.46080  0.97360  0.59200  Biso   1.000  C
  C24      1.0000 0.97360  0.59200  0.97360  Biso   1.000  C
  C25      1.0000 0.11050  0.38950  0.11050  Biso   1.000  C
  C26      1.0000 0.05430  0.44570  0.05430  Biso   1.000  C
  C27      1.0000 0.38950  0.11050  0.38950  Biso   1.000  C
  C28      1.0000 0.44570  0.05430  0.44570  Biso   1.000  C
  C29      1.0000 0.11050  0.11050  0.38950  Biso   1.000  C
  C30      1.0000 0.05430  0.05430  0.44570  Biso   1.000  C
  C31      1.0000 0.38950  0.38950  0.11050  Biso   1.000  C
  C32      1.0000 0.44570  0.44570  0.05430  Biso   1.000  C
  C33      1.0000 0.11050  0.38950  0.38950  Biso   1.000  C
  C34      1.0000 0.05430  0.44570  0.44570  Biso   1.000  C
  C35      1.0000 0.38950  0.11050  0.11050  Biso   1.000  C
  C36      1.0000 0.44570  0.05430  0.05430  Biso   1.000  C
  C37      1.0000 0.61050  0.88950  0.88950  Biso   1.000  C
  C38      1.0000 0.55430  0.94570  0.94570  Biso   1.000  C
  C39      1.0000 0.88950  0.61050  0.61050  Biso   1.000  C
  C40      1.0000 0.94570  0.55430  0.55430  Biso   1.000  C
  C41      1.0000 0.88950  0.88950  0.61050  Biso   1.000  C
  C42      1.0000 0.94570  0.94570  0.55430  Biso   1.000  C
  C43      1.0000 0.61050  0.61050  0.88950  Biso   1.000  C
  C44      1.0000 0.55430  0.55430  0.94570  Biso   1.000  C
  C45      1.0000 0.61050  0.88950  0.61050  Biso   1.000  C
  C46      1.0000 0.55430  0.94570  0.55430  Biso   1.000  C
  C47      1.0000 0.88950  0.61050  0.88950  Biso   1.000  C
  C48      1.0000 0.94570  0.55430  0.94570  Biso   1.000  C
  O1       1.0000 0.25000  0.25000  0.25000  Biso   1.000  O
  O2       1.0000 0.75000  0.75000  0.75000  Biso   1.000  O
  O3       1.0000 0.13330  0.42830  0.13330  Biso   1.000  O
  O4       1.0000 0.42830  0.13330  0.30510  Biso   1.000  O
  O5       1.0000 0.13330  0.30510  0.13330  Biso   1.000  O
  O6       1.0000 0.30510  0.13330  0.42830  Biso   1.000  O
  O7       1.0000 0.13330  0.13330  0.30510  Biso   1.000  O
  O8       1.0000 0.42830  0.30510  0.13330  Biso   1.000  O
  O9       1.0000 0.13330  0.13330  0.42830  Biso   1.000  O
  O10      1.0000 0.30510  0.42830  0.13330  Biso   1.000  O
  O11      1.0000 0.13330  0.30510  0.42830  Biso   1.000  O
  O12      1.0000 0.42830  0.13330  0.13330  Biso   1.000  O
  O13      1.0000 0.13330  0.42830  0.30510  Biso   1.000  O
  O14      1.0000 0.30510  0.13330  0.13330  Biso   1.000  O
  O15      1.0000 0.57170  0.86670  0.86670  Biso   1.000  O
  O16      1.0000 0.86670  0.57170  0.69490  Biso   1.000  O
  O17      1.0000 0.69490  0.86670  0.86670  Biso   1.000  O
  O18      1.0000 0.86670  0.69490  0.57170  Biso   1.000  O
  O19      1.0000 0.86670  0.86670  0.69490  Biso   1.000  O
  O20      1.0000 0.69490  0.57170  0.86670  Biso   1.000  O
  O21      1.0000 0.86670  0.86670  0.57170  Biso   1.000  O
  O22      1.0000 0.57170  0.69490  0.86670  Biso   1.000  O
  O23      1.0000 0.69490  0.86670  0.57170  Biso   1.000  O
  O24      1.0000 0.86670  0.57170  0.86670  Biso   1.000  O
  O25      1.0000 0.57170  0.86670  0.69490  Biso   1.000  O
  O26      1.0000 0.86670  0.69490  0.86670  Biso   1.000  O
  Zn9      1.0000 0.59270  0.07710  0.72104  Biso   1.000  Zn
  Zn10     1.0000 0.59270  0.25150  0.72104  Biso   1.000  Zn
  Zn11     1.0000 0.41830  0.25150  0.72104  Biso   1.000  Zn
  Zn12     1.0000 0.59270  0.25150  0.54664  Biso   1.000  Zn
  Zn13     1.0000 0.00550  0.66430  0.13384  Biso   1.000  Zn
  Zn14     1.0000 0.00550  0.83870  0.13384  Biso   1.000  Zn
  Zn15     1.0000 0.17990  0.66430  0.13384  Biso   1.000  Zn
  Zn16     1.0000 0.00550  0.66430  0.30824  Biso   1.000  Zn
  H25      1.0000 0.46180  0.89220  0.87894  Biso   1.000  H
  H26      1.0000 0.75060  0.40940  0.59014  Biso   1.000  H
  H27      1.0000 0.23340  0.12060  0.87894  Biso   1.000  H
  H28      1.0000 0.75060  0.40940  0.36174  Biso   1.000  H
  H29      1.0000 0.23340  0.40940  0.59014  Biso   1.000  H
  H30      1.0000 0.75060  0.12060  0.87894  Biso   1.000  H
  H31      1.0000 0.46180  0.40940  0.36174  Biso   1.000  H
  H32      1.0000 0.75060  0.89220  0.87894  Biso   1.000  H
  H33      1.0000 0.75060  0.12060  0.36174  Biso   1.000  H
  H34      1.0000 0.46180  0.40940  0.87894  Biso   1.000  H
  H35      1.0000 0.75060  0.89220  0.59014  Biso   1.000  H
  H36      1.0000 0.23340  0.40940  0.87894  Biso   1.000  H
  H37      1.0000 0.13640  0.50640  0.97594  Biso   1.000  H
  H38      1.0000 0.84760  0.02360  0.26474  Biso   1.000  H
  H39      1.0000 0.36480  0.50640  0.97594  Biso   1.000  H
  H40      1.0000 0.84760  0.79520  0.49314  Biso   1.000  H
  H41      1.0000 0.36480  0.50640  0.26474  Biso   1.000  H
  H42      1.0000 0.84760  0.02360  0.97594  Biso   1.000  H
  H43      1.0000 0.13640  0.50640  0.49314  Biso   1.000  H
  H44      1.0000 0.84760  0.79520  0.97594  Biso   1.000  H
  H45      1.0000 0.84760  0.50640  0.49314  Biso   1.000  H
  H46      1.0000 0.13640  0.02360  0.97594  Biso   1.000  H
  H47      1.0000 0.84760  0.50640  0.26474  Biso   1.000  H
  H48      1.0000 0.36480  0.79520  0.97594  Biso   1.000  H
  C49      1.0000 0.39110  0.91870  0.90104  Biso   1.000  C
  C50      1.0000 0.77270  0.43150  0.51944  Biso   1.000  C
  C51      1.0000 0.25990  0.04990  0.90104  Biso   1.000  C
  C52      1.0000 0.77270  0.43150  0.38824  Biso   1.000  C
  C53      1.0000 0.25990  0.43150  0.51944  Biso   1.000  C
  C54      1.0000 0.77270  0.04990  0.90104  Biso   1.000  C
  C55      1.0000 0.39110  0.43150  0.38824  Biso   1.000  C
  C56      1.0000 0.77270  0.91870  0.90104  Biso   1.000  C
  C57      1.0000 0.77270  0.04990  0.38824  Biso   1.000  C
  C58      1.0000 0.39110  0.43150  0.90104  Biso   1.000  C
  C59      1.0000 0.77270  0.91870  0.51944  Biso   1.000  C
  C60      1.0000 0.25990  0.43150  0.90104  Biso   1.000  C
  C61      1.0000 0.20710  0.48430  0.95384  Biso   1.000  C
  C62      1.0000 0.82550  0.99710  0.33544  Biso   1.000  C
  C63      1.0000 0.33830  0.48430  0.95384  Biso   1.000  C
  C64      1.0000 0.82550  0.86590  0.46664  Biso   1.000  C
  C65      1.0000 0.33830  0.48430  0.33544  Biso   1.000  C
  C66      1.0000 0.82550  0.99710  0.95384  Biso   1.000  C
  C67      1.0000 0.20710  0.48430  0.46664  Biso   1.000  C
  C68      1.0000 0.82550  0.86590  0.95384  Biso   1.000  C
  C69      1.0000 0.82550  0.48430  0.46664  Biso   1.000  C
  C70      1.0000 0.20710  0.99710  0.95384  Biso   1.000  C
  C71      1.0000 0.82550  0.48430  0.33544  Biso   1.000  C
  C72      1.0000 0.33830  0.86590  0.95384  Biso   1.000  C
  C73      1.0000 0.40960  0.06840  0.81694  Biso   1.000  C
  C74      1.0000 0.35340  0.01220  0.87314  Biso   1.000  C
  C75      1.0000 0.68860  0.34740  0.53794  Biso   1.000  C
  C76      1.0000 0.74480  0.40360  0.48174  Biso   1.000  C
  C77      1.0000 0.40960  0.34740  0.53794  Biso   1.000  C
  C78      1.0000 0.35340  0.40360  0.48174  Biso   1.000  C
  C79      1.0000 0.68860  0.06840  0.81694  Biso   1.000  C
  C80      1.0000 0.74480  0.01220  0.87314  Biso   1.000  C
  C81      1.0000 0.68860  0.06840  0.53794  Biso   1.000  C
  C82      1.0000 0.74480  0.01220  0.48174  Biso   1.000  C
  C83      1.0000 0.40960  0.34740  0.81694  Biso   1.000  C
  C84      1.0000 0.35340  0.40360  0.87314  Biso   1.000  C
  C85      1.0000 0.18860  0.56840  0.03794  Biso   1.000  C
  C86      1.0000 0.24480  0.51220  0.98174  Biso   1.000  C
  C87      1.0000 0.90960  0.84740  0.31694  Biso   1.000  C
  C88      1.0000 0.85340  0.90360  0.37314  Biso   1.000  C
  C89      1.0000 0.18860  0.56840  0.31694  Biso   1.000  C
  C90      1.0000 0.24480  0.51220  0.37314  Biso   1.000  C
  C91      1.0000 0.90960  0.84740  0.03794  Biso   1.000  C
  C92      1.0000 0.85340  0.90360  0.98174  Biso   1.000  C
  C93      1.0000 0.90960  0.56840  0.31694  Biso   1.000  C
  C94      1.0000 0.85340  0.51220  0.37314  Biso   1.000  C
  C95      1.0000 0.18860  0.84740  0.03794  Biso   1.000  C
  C96      1.0000 0.24480  0.90360  0.98174  Biso   1.000  C
  O27      1.0000 0.54910  0.20790  0.67744  Biso   1.000  O
  O28      1.0000 0.04910  0.70790  0.17744  Biso   1.000  O
  O29      1.0000 0.49400  0.02960  0.79414  Biso   1.000  O
  O30      1.0000 0.66580  0.32460  0.62234  Biso   1.000  O
  O31      1.0000 0.37080  0.15280  0.79414  Biso   1.000  O
  O32      1.0000 0.66580  0.32460  0.49914  Biso   1.000  O
  O33      1.0000 0.37080  0.32460  0.62234  Biso   1.000  O
  O34      1.0000 0.66580  0.15280  0.79414  Biso   1.000  O
  O35      1.0000 0.49400  0.32460  0.49914  Biso   1.000  O
  O36      1.0000 0.66580  0.02960  0.79414  Biso   1.000  O
  O37      1.0000 0.66580  0.15280  0.49914  Biso   1.000  O
  O38      1.0000 0.49400  0.32460  0.79414  Biso   1.000  O
  O39      1.0000 0.66580  0.02960  0.62234  Biso   1.000  O
  O40      1.0000 0.37080  0.32460  0.79414  Biso   1.000  O
  O41      1.0000 0.10420  0.59120  0.06074  Biso   1.000  O
  O42      1.0000 0.93240  0.88620  0.23254  Biso   1.000  O
  O43      1.0000 0.22740  0.59120  0.06074  Biso   1.000  O
  O44      1.0000 0.93240  0.76300  0.35574  Biso   1.000  O
  O45      1.0000 0.22740  0.59120  0.23254  Biso   1.000  O
  O46      1.0000 0.93240  0.88620  0.06074  Biso   1.000  O
  O47      1.0000 0.10420  0.59120  0.35574  Biso   1.000  O
  O48      1.0000 0.93240  0.76300  0.06074  Biso   1.000  O
  O49      1.0000 0.93240  0.59120  0.35574  Biso   1.000  O
  O50      1.0000 0.10420  0.88620  0.06074  Biso   1.000  O
  O51      1.0000 0.93240  0.59120  0.23254  Biso   1.000  O
  O52      1.0000 0.22740  0.76300  0.06074  Biso   1.000  O
