data_image0
_cell_length_a       18.101
_cell_length_b       18.101
_cell_length_c       18.101
_cell_angle_alpha    60.0036
_cell_angle_beta     60.0036
_cell_angle_gamma    60.0001

_symmetry_space_group_name_H-M    "P 1"
_symmetry_int_tables_number       1

loop_
  _symmetry_equiv_pos_as_xyz
  'x, y, z'

loop_
  _atom_site_label
  _atom_site_occupancy
  _atom_site_fract_x
  _atom_site_fract_y
  _atom_site_fract_z
  _atom_site_thermal_displace_type
  _atom_site_B_iso_or_equiv
  _atom_site_type_symbol
  C1       1.0000 0.11865  0.29385  0.29380  Biso   1.000  C
  C2       1.0000 0.70615  0.88135  0.70620  Biso   1.000  C
  C3       1.0000 0.88135  0.70615  0.70620  Biso   1.000  C
  C4       1.0000 0.29385  0.11865  0.29380  Biso   1.000  C
  C5       1.0000 0.29392  0.29392  0.11841  Biso   1.000  C
  C6       1.0000 0.29367  0.29367  0.29393  Biso   1.000  C
  C7       1.0000 0.70608  0.70608  0.88159  Biso   1.000  C
  C8       1.0000 0.70633  0.70633  0.70607  Biso   1.000  C
  C9       1.0000 0.15480  0.45200  0.93360  Biso   1.000  C
  C10      1.0000 0.93280  0.45040  0.15620  Biso   1.000  C
  C11      1.0000 0.93080  0.15620  0.44950  Biso   1.000  C
  C12      1.0000 0.54800  0.84520  0.06640  Biso   1.000  C
  C13      1.0000 0.54960  0.06720  0.84380  Biso   1.000  C
  C14      1.0000 0.84380  0.06920  0.55050  Biso   1.000  C
  C15      1.0000 0.84520  0.54800  0.06640  Biso   1.000  C
  C16      1.0000 0.06720  0.54960  0.84380  Biso   1.000  C
  C17      1.0000 0.06920  0.84380  0.55050  Biso   1.000  C
  C18      1.0000 0.45200  0.15480  0.93360  Biso   1.000  C
  C19      1.0000 0.45040  0.93280  0.15620  Biso   1.000  C
  C20      1.0000 0.15620  0.93080  0.44950  Biso   1.000  C
  C21      1.0000 0.12160  0.38280  0.11390  Biso   1.000  C
  C22      1.0000 0.05170  0.44790  0.05410  Biso   1.000  C
  C23      1.0000 0.09080  0.47360  0.96020  Biso   1.000  C
  C24      1.0000 0.96010  0.47210  0.09240  Biso   1.000  C
  C25      1.0000 0.11800  0.38220  0.38200  Biso   1.000  C
  C26      1.0000 0.95710  0.09250  0.47340  Biso   1.000  C
  C27      1.0000 0.61720  0.87840  0.88610  Biso   1.000  C
  C28      1.0000 0.55210  0.94830  0.94590  Biso   1.000  C
  C29      1.0000 0.52640  0.90920  0.03980  Biso   1.000  C
  C30      1.0000 0.52790  0.03990  0.90760  Biso   1.000  C
  C31      1.0000 0.61780  0.88200  0.61800  Biso   1.000  C
  C32      1.0000 0.90750  0.04290  0.52660  Biso   1.000  C
  C33      1.0000 0.87840  0.61720  0.88610  Biso   1.000  C
  C34      1.0000 0.94830  0.55210  0.94590  Biso   1.000  C
  C35      1.0000 0.90920  0.52640  0.03980  Biso   1.000  C
  C36      1.0000 0.03990  0.52790  0.90760  Biso   1.000  C
  C37      1.0000 0.88200  0.61780  0.61800  Biso   1.000  C
  C38      1.0000 0.04290  0.90750  0.52660  Biso   1.000  C
  C39      1.0000 0.38280  0.12160  0.11390  Biso   1.000  C
  C40      1.0000 0.44790  0.05170  0.05410  Biso   1.000  C
  C41      1.0000 0.47360  0.09080  0.96020  Biso   1.000  C
  C42      1.0000 0.47210  0.96010  0.09240  Biso   1.000  C
  C43      1.0000 0.38220  0.11800  0.38200  Biso   1.000  C
  C44      1.0000 0.09250  0.95710  0.47340  Biso   1.000  C
  C45      1.0000 0.38310  0.38310  0.11400  Biso   1.000  C
  C46      1.0000 0.11690  0.11690  0.38110  Biso   1.000  C
  C47      1.0000 0.05150  0.05150  0.45050  Biso   1.000  C
  C48      1.0000 0.61690  0.61690  0.88600  Biso   1.000  C
  C49      1.0000 0.88310  0.88310  0.61890  Biso   1.000  C
  C50      1.0000 0.94850  0.94850  0.54950  Biso   1.000  C
  C51      1.0000 0.19980  0.36640  0.06970  Biso   1.000  C
  C52      1.0000 0.06940  0.36720  0.19730  Biso   1.000  C
  C53      1.0000 0.19960  0.36660  0.36560  Biso   1.000  C
  C54      1.0000 0.06800  0.36680  0.36570  Biso   1.000  C
  C55      1.0000 0.06830  0.19910  0.36730  Biso   1.000  C
  C56      1.0000 0.63360  0.80020  0.93030  Biso   1.000  C
  C57      1.0000 0.63280  0.93060  0.80270  Biso   1.000  C
  C58      1.0000 0.63340  0.80040  0.63440  Biso   1.000  C
  C59      1.0000 0.63320  0.93200  0.63430  Biso   1.000  C
  C60      1.0000 0.80090  0.93170  0.63270  Biso   1.000  C
  C61      1.0000 0.80020  0.63360  0.93030  Biso   1.000  C
  C62      1.0000 0.93060  0.63280  0.80270  Biso   1.000  C
  C63      1.0000 0.80040  0.63340  0.63440  Biso   1.000  C
  C64      1.0000 0.93200  0.63320  0.63430  Biso   1.000  C
  C65      1.0000 0.93170  0.80090  0.63270  Biso   1.000  C
  C66      1.0000 0.36640  0.19980  0.06970  Biso   1.000  C
  C67      1.0000 0.36720  0.06940  0.19730  Biso   1.000  C
  C68      1.0000 0.36660  0.19960  0.36560  Biso   1.000  C
  C69      1.0000 0.36680  0.06800  0.36570  Biso   1.000  C
  C70      1.0000 0.19910  0.06830  0.36730  Biso   1.000  C
  C71      1.0000 0.24870  0.24870  0.25120  Biso   1.000  C
  C72      1.0000 0.36630  0.36630  0.06820  Biso   1.000  C
  C73      1.0000 0.36620  0.36620  0.19910  Biso   1.000  C
  C74      1.0000 0.75130  0.75130  0.74880  Biso   1.000  C
  C75      1.0000 0.63370  0.63370  0.93180  Biso   1.000  C
  C76      1.0000 0.63380  0.63380  0.80090  Biso   1.000  C
  O1       1.0000 0.19466  0.83621  0.00000  Biso   1.000  O
  O2       1.0000 0.59744  0.23897  0.59722  Biso   1.000  O
  O3       1.0000 0.42016  0.41626  0.59722  Biso   1.000  O
  O4       1.0000 0.01738  0.01350  0.00000  Biso   1.000  O
  O5       1.0000 0.01719  0.83602  0.17741  Biso   1.000  O
  O6       1.0000 0.01731  0.83614  0.99979  Biso   1.000  O
  O7       1.0000 0.59763  0.41645  0.41981  Biso   1.000  O
  O8       1.0000 0.59751  0.41633  0.59743  Biso   1.000  O
  O9       1.0000 0.85195  0.18273  0.14376  Biso   1.000  O
  O10      1.0000 0.84879  0.97976  0.36124  Biso   1.000  O
  O11      1.0000 0.85561  0.18069  0.83619  Biso   1.000  O
  O12      1.0000 0.85509  0.97854  0.83080  Biso   1.000  O
  O13      1.0000 0.36299  0.97915  0.83802  Biso   1.000  O
  O14      1.0000 0.25091  0.58170  0.45346  Biso   1.000  O
  O15      1.0000 0.45389  0.58485  0.23598  Biso   1.000  O
  O16      1.0000 0.25294  0.57804  0.76103  Biso   1.000  O
  O17      1.0000 0.45511  0.57855  0.76642  Biso   1.000  O
  O18      1.0000 0.45450  0.07066  0.75920  Biso   1.000  O
  O19      1.0000 0.76287  0.06974  0.45346  Biso   1.000  O
  O20      1.0000 0.76603  0.27271  0.23598  Biso   1.000  O
  O21      1.0000 0.75921  0.07178  0.76103  Biso   1.000  O
  O22      1.0000 0.75973  0.27393  0.76642  Biso   1.000  O
  O23      1.0000 0.25182  0.27332  0.75920  Biso   1.000  O
  O24      1.0000 0.36391  0.67077  0.14376  Biso   1.000  O
  O25      1.0000 0.16093  0.66762  0.36124  Biso   1.000  O
  O26      1.0000 0.36188  0.67443  0.83619  Biso   1.000  O
  O27      1.0000 0.15971  0.67392  0.83080  Biso   1.000  O
  O28      1.0000 0.16032  0.18181  0.83802  Biso   1.000  O
  O29      1.0000 0.85326  0.67209  0.14305  Biso   1.000  O
  O30      1.0000 0.85052  0.66935  0.36521  Biso   1.000  O
  O31      1.0000 0.76156  0.58038  0.45417  Biso   1.000  O
  O32      1.0000 0.76430  0.58312  0.23201  Biso   1.000  O
  O33      1.0000 0.92108  0.02338  0.18311  Biso   1.000  O
  O34      1.0000 0.86129  0.08133  0.24452  Biso   1.000  O
  O35      1.0000 0.83476  0.15578  0.20710  Biso   1.000  O
  O36      1.0000 0.83293  0.04300  0.33521  Biso   1.000  O
  O37      1.0000 0.92148  0.02216  0.90187  Biso   1.000  O
  O38      1.0000 0.86465  0.07879  0.84402  Biso   1.000  O
  O39      1.0000 0.83639  0.15456  0.81840  Biso   1.000  O
  O40      1.0000 0.83598  0.04158  0.81494  Biso   1.000  O
  O41      1.0000 0.33625  0.04229  0.81819  Biso   1.000  O
  O42      1.0000 0.41027  0.51256  0.41411  Biso   1.000  O
  O43      1.0000 0.35232  0.57235  0.35270  Biso   1.000  O
  O44      1.0000 0.27785  0.59888  0.39012  Biso   1.000  O
  O45      1.0000 0.39065  0.60071  0.26201  Biso   1.000  O
  O46      1.0000 0.41149  0.51216  0.69535  Biso   1.000  O
  O47      1.0000 0.35486  0.56899  0.75320  Biso   1.000  O
  O48      1.0000 0.27907  0.59726  0.77882  Biso   1.000  O
  O49      1.0000 0.39207  0.59767  0.78228  Biso   1.000  O
  O50      1.0000 0.39136  0.09740  0.77903  Biso   1.000  O
  O51      1.0000 0.69374  0.22909  0.41411  Biso   1.000  O
  O52      1.0000 0.75353  0.17114  0.35270  Biso   1.000  O
  O53      1.0000 0.78006  0.09669  0.39012  Biso   1.000  O
  O54      1.0000 0.78189  0.20947  0.26201  Biso   1.000  O
  O55      1.0000 0.69333  0.23031  0.69535  Biso   1.000  O
  O56      1.0000 0.75017  0.17368  0.75320  Biso   1.000  O
  O57      1.0000 0.77843  0.09791  0.77882  Biso   1.000  O
  O58      1.0000 0.77884  0.21089  0.78228  Biso   1.000  O
  O59      1.0000 0.27857  0.21018  0.77903  Biso   1.000  O
  O60      1.0000 0.20454  0.73991  0.18311  Biso   1.000  O
  O61      1.0000 0.26250  0.68012  0.24452  Biso   1.000  O
  O62      1.0000 0.33697  0.65359  0.20710  Biso   1.000  O
  O63      1.0000 0.22417  0.65176  0.33521  Biso   1.000  O
  O64      1.0000 0.20333  0.74031  0.90187  Biso   1.000  O
  O65      1.0000 0.25996  0.68348  0.84402  Biso   1.000  O
  O66      1.0000 0.33575  0.65521  0.81840  Biso   1.000  O
  O67      1.0000 0.22275  0.65481  0.81494  Biso   1.000  O
  O68      1.0000 0.22346  0.15507  0.81819  Biso   1.000  O
  O69      1.0000 0.91935  0.73818  0.18982  Biso   1.000  O
  O70      1.0000 0.86231  0.68114  0.24371  Biso   1.000  O
  O71      1.0000 0.83527  0.65409  0.20609  Biso   1.000  O
  O72      1.0000 0.83283  0.65165  0.33725  Biso   1.000  O
  O73      1.0000 0.20037  0.01921  0.90716  Biso   1.000  O
  O74      1.0000 0.26158  0.08042  0.84412  Biso   1.000  O
  O75      1.0000 0.69547  0.51429  0.40740  Biso   1.000  O
  O76      1.0000 0.75251  0.57133  0.35352  Biso   1.000  O
  O77      1.0000 0.77955  0.59838  0.39114  Biso   1.000  O
  O78      1.0000 0.78199  0.60082  0.25997  Biso   1.000  O
  O79      1.0000 0.41445  0.23326  0.69006  Biso   1.000  O
  O80      1.0000 0.35324  0.17205  0.75310  Biso   1.000  O
  O81      1.0000 0.94151  0.93624  0.22734  Biso   1.000  O
  O82      1.0000 0.94395  0.06456  0.09902  Biso   1.000  O
  O83      1.0000 0.94121  0.93512  0.92760  Biso   1.000  O
  O84      1.0000 0.94345  0.06303  0.92475  Biso   1.000  O
  O85      1.0000 0.24348  0.93482  0.92709  Biso   1.000  O
  O86      1.0000 0.49741  0.49213  0.36989  Biso   1.000  O
  O87      1.0000 0.36910  0.48969  0.49820  Biso   1.000  O
  O88      1.0000 0.49853  0.49243  0.66962  Biso   1.000  O
  O89      1.0000 0.37062  0.49019  0.67247  Biso   1.000  O
  O90      1.0000 0.49883  0.19015  0.67013  Biso   1.000  O
  O91      1.0000 0.67331  0.31623  0.36989  Biso   1.000  O
  O92      1.0000 0.67087  0.18791  0.49820  Biso   1.000  O
  O93      1.0000 0.67361  0.31735  0.66962  Biso   1.000  O
  O94      1.0000 0.67137  0.18944  0.67247  Biso   1.000  O
  O95      1.0000 0.37134  0.31765  0.67013  Biso   1.000  O
  O96      1.0000 0.11741  0.76034  0.22734  Biso   1.000  O
  O97      1.0000 0.24572  0.76278  0.09902  Biso   1.000  O
  O98      1.0000 0.11629  0.76004  0.92760  Biso   1.000  O
  O99      1.0000 0.24420  0.76228  0.92475  Biso   1.000  O
  O100     1.0000 0.11599  0.06232  0.92709  Biso   1.000  O
  O101     1.0000 0.06149  0.88032  0.04463  Biso   1.000  O
  O102     1.0000 0.94294  0.76177  0.22632  Biso   1.000  O
  O103     1.0000 0.94131  0.76014  0.10380  Biso   1.000  O
  O104     1.0000 0.55333  0.37215  0.55260  Biso   1.000  O
  O105     1.0000 0.67188  0.49070  0.37090  Biso   1.000  O
  O106     1.0000 0.67351  0.49233  0.49342  Biso   1.000  O
