data_image0
_cell_length_a       18.101
_cell_length_b       18.101
_cell_length_c       18.101
_cell_angle_alpha    60.0036
_cell_angle_beta     60.0036
_cell_angle_gamma    60.0001

_symmetry_space_group_name_H-M    "P 1"
_symmetry_int_tables_number       1

loop_
  _symmetry_equiv_pos_as_xyz
  'x, y, z'

loop_
  _atom_site_label
  _atom_site_occupancy
  _atom_site_fract_x
  _atom_site_fract_y
  _atom_site_fract_z
  _atom_site_thermal_displace_type
  _atom_site_B_iso_or_equiv
  _atom_site_type_symbol
  Zn1      1.0000 0.11865  0.29385  0.29380  Biso   1.000  Zn
  Zn2      1.0000 0.70615  0.88135  0.70620  Biso   1.000  Zn
  Zn3      1.0000 0.88135  0.70615  0.70620  Biso   1.000  Zn
  Zn4      1.0000 0.29385  0.11865  0.29380  Biso   1.000  Zn
  Zn5      1.0000 0.29392  0.29392  0.11841  Biso   1.000  Zn
  Zn6      1.0000 0.29367  0.29367  0.29393  Biso   1.000  Zn
  Zn7      1.0000 0.70608  0.70608  0.88159  Biso   1.000  Zn
  Zn8      1.0000 0.70633  0.70633  0.70607  Biso   1.000  Zn
  H1       1.0000 0.15480  0.45200  0.93360  Biso   1.000  H
  H2       1.0000 0.93280  0.45040  0.15620  Biso   1.000  H
  H3       1.0000 0.93080  0.15620  0.44950  Biso   1.000  H
  H4       1.0000 0.54800  0.84520  0.06640  Biso   1.000  H
  H5       1.0000 0.54960  0.06720  0.84380  Biso   1.000  H
  H6       1.0000 0.84380  0.06920  0.55050  Biso   1.000  H
  H7       1.0000 0.84520  0.54800  0.06640  Biso   1.000  H
  H8       1.0000 0.06720  0.54960  0.84380  Biso   1.000  H
  H9       1.0000 0.06920  0.84380  0.55050  Biso   1.000  H
  H10      1.0000 0.45200  0.15480  0.93360  Biso   1.000  H
  H11      1.0000 0.45040  0.93280  0.15620  Biso   1.000  H
  H12      1.0000 0.15620  0.93080  0.44950  Biso   1.000  H
  C1       1.0000 0.12160  0.38280  0.11390  Biso   1.000  C
  C2       1.0000 0.05170  0.44790  0.05410  Biso   1.000  C
  C3       1.0000 0.09080  0.47360  0.96020  Biso   1.000  C
  C4       1.0000 0.96010  0.47210  0.09240  Biso   1.000  C
  C5       1.0000 0.11800  0.38220  0.38200  Biso   1.000  C
  C6       1.0000 0.95710  0.09250  0.47340  Biso   1.000  C
  C7       1.0000 0.61720  0.87840  0.88610  Biso   1.000  C
  C8       1.0000 0.55210  0.94830  0.94590  Biso   1.000  C
  C9       1.0000 0.52640  0.90920  0.03980  Biso   1.000  C
  C10      1.0000 0.52790  0.03990  0.90760  Biso   1.000  C
  C11      1.0000 0.61780  0.88200  0.61800  Biso   1.000  C
  C12      1.0000 0.90750  0.04290  0.52660  Biso   1.000  C
  C13      1.0000 0.87840  0.61720  0.88610  Biso   1.000  C
  C14      1.0000 0.94830  0.55210  0.94590  Biso   1.000  C
  C15      1.0000 0.90920  0.52640  0.03980  Biso   1.000  C
  C16      1.0000 0.03990  0.52790  0.90760  Biso   1.000  C
  C17      1.0000 0.88200  0.61780  0.61800  Biso   1.000  C
  C18      1.0000 0.04290  0.90750  0.52660  Biso   1.000  C
  C19      1.0000 0.38280  0.12160  0.11390  Biso   1.000  C
  C20      1.0000 0.44790  0.05170  0.05410  Biso   1.000  C
  C21      1.0000 0.47360  0.09080  0.96020  Biso   1.000  C
  C22      1.0000 0.47210  0.96010  0.09240  Biso   1.000  C
  C23      1.0000 0.38220  0.11800  0.38200  Biso   1.000  C
  C24      1.0000 0.09250  0.95710  0.47340  Biso   1.000  C
  C25      1.0000 0.38310  0.38310  0.11400  Biso   1.000  C
  C26      1.0000 0.11690  0.11690  0.38110  Biso   1.000  C
  C27      1.0000 0.05150  0.05150  0.45050  Biso   1.000  C
  C28      1.0000 0.61690  0.61690  0.88600  Biso   1.000  C
  C29      1.0000 0.88310  0.88310  0.61890  Biso   1.000  C
  C30      1.0000 0.94850  0.94850  0.54950  Biso   1.000  C
  O1       1.0000 0.19980  0.36640  0.06970  Biso   1.000  O
  O2       1.0000 0.06940  0.36720  0.19730  Biso   1.000  O
  O3       1.0000 0.19960  0.36660  0.36560  Biso   1.000  O
  O4       1.0000 0.06800  0.36680  0.36570  Biso   1.000  O
  O5       1.0000 0.06830  0.19910  0.36730  Biso   1.000  O
  O6       1.0000 0.63360  0.80020  0.93030  Biso   1.000  O
  O7       1.0000 0.63280  0.93060  0.80270  Biso   1.000  O
  O8       1.0000 0.63340  0.80040  0.63440  Biso   1.000  O
  O9       1.0000 0.63320  0.93200  0.63430  Biso   1.000  O
  O10      1.0000 0.80090  0.93170  0.63270  Biso   1.000  O
  O11      1.0000 0.80020  0.63360  0.93030  Biso   1.000  O
  O12      1.0000 0.93060  0.63280  0.80270  Biso   1.000  O
  O13      1.0000 0.80040  0.63340  0.63440  Biso   1.000  O
  O14      1.0000 0.93200  0.63320  0.63430  Biso   1.000  O
  O15      1.0000 0.93170  0.80090  0.63270  Biso   1.000  O
  O16      1.0000 0.36640  0.19980  0.06970  Biso   1.000  O
  O17      1.0000 0.36720  0.06940  0.19730  Biso   1.000  O
  O18      1.0000 0.36660  0.19960  0.36560  Biso   1.000  O
  O19      1.0000 0.36680  0.06800  0.36570  Biso   1.000  O
  O20      1.0000 0.19910  0.06830  0.36730  Biso   1.000  O
  O21      1.0000 0.24870  0.24870  0.25120  Biso   1.000  O
  O22      1.0000 0.36630  0.36630  0.06820  Biso   1.000  O
  O23      1.0000 0.36620  0.36620  0.19910  Biso   1.000  O
  O24      1.0000 0.75130  0.75130  0.74880  Biso   1.000  O
  O25      1.0000 0.63370  0.63370  0.93180  Biso   1.000  O
  O26      1.0000 0.63380  0.63380  0.80090  Biso   1.000  O
  Zn9      1.0000 0.78278  0.88255  0.43466  Biso   1.000  Zn
  Zn10     1.0000 0.95831  0.88254  0.25915  Biso   1.000  Zn
  Zn11     1.0000 0.78277  0.88254  0.25915  Biso   1.000  Zn
  Zn12     1.0000 0.78277  0.05808  0.25915  Biso   1.000  Zn
  Zn13     1.0000 0.36360  0.47264  0.67362  Biso   1.000  Zn
  Zn14     1.0000 0.18807  0.47265  0.84913  Biso   1.000  Zn
  Zn15     1.0000 0.36361  0.29711  0.84913  Biso   1.000  Zn
  Zn16     1.0000 0.36361  0.47265  0.84913  Biso   1.000  Zn
  H13      1.0000 0.62022  0.71999  0.62134  Biso   1.000  H
  H14      1.0000 0.14501  0.02095  0.09660  Biso   1.000  H
  H15      1.0000 0.62020  0.71997  0.39754  Biso   1.000  H
  H16      1.0000 0.92118  0.24478  0.09660  Biso   1.000  H
  H17      1.0000 0.62019  0.24478  0.09660  Biso   1.000  H
  H18      1.0000 0.92120  0.71999  0.62134  Biso   1.000  H
  H19      1.0000 0.62019  0.02095  0.09660  Biso   1.000  H
  H20      1.0000 0.14503  0.71997  0.39754  Biso   1.000  H
  H21      1.0000 0.14501  0.71996  0.09660  Biso   1.000  H
  H22      1.0000 0.62020  0.24479  0.39754  Biso   1.000  H
  H23      1.0000 0.92118  0.71996  0.09660  Biso   1.000  H
  H24      1.0000 0.62022  0.02097  0.62134  Biso   1.000  H
  H25      1.0000 0.52616  0.33421  0.48694  Biso   1.000  H
  H26      1.0000 0.00137  0.63523  0.01168  Biso   1.000  H
  H27      1.0000 0.52617  0.11039  0.71074  Biso   1.000  H
  H28      1.0000 0.22520  0.63523  0.01168  Biso   1.000  H
  H29      1.0000 0.52619  0.33424  0.01168  Biso   1.000  H
  H30      1.0000 0.22517  0.63520  0.48694  Biso   1.000  H
  H31      1.0000 0.52619  0.11041  0.01168  Biso   1.000  H
  H32      1.0000 0.00135  0.63521  0.71074  Biso   1.000  H
  H33      1.0000 0.00137  0.33424  0.01168  Biso   1.000  H
  H34      1.0000 0.52617  0.63521  0.71074  Biso   1.000  H
  H35      1.0000 0.22520  0.11041  0.01168  Biso   1.000  H
  H36      1.0000 0.52616  0.63520  0.48694  Biso   1.000  H
  C31      1.0000 0.60166  0.70143  0.59437  Biso   1.000  C
  C32      1.0000 0.11803  0.08503  0.07805  Biso   1.000  C
  C33      1.0000 0.60165  0.70142  0.46162  Biso   1.000  C
  C34      1.0000 0.98526  0.21780  0.07805  Biso   1.000  C
  C35      1.0000 0.60163  0.21780  0.07805  Biso   1.000  C
  C36      1.0000 0.98529  0.70143  0.59437  Biso   1.000  C
  C37      1.0000 0.60163  0.08503  0.07805  Biso   1.000  C
  C38      1.0000 0.11805  0.70142  0.46162  Biso   1.000  C
  C39      1.0000 0.11803  0.70140  0.07805  Biso   1.000  C
  C40      1.0000 0.60165  0.21782  0.46162  Biso   1.000  C
  C41      1.0000 0.98526  0.70140  0.07805  Biso   1.000  C
  C42      1.0000 0.60166  0.08506  0.59437  Biso   1.000  C
  C43      1.0000 0.54472  0.27013  0.51391  Biso   1.000  C
  C44      1.0000 0.02834  0.65378  0.03023  Biso   1.000  C
  C45      1.0000 0.54472  0.13736  0.64666  Biso   1.000  C
  C46      1.0000 0.16112  0.65378  0.03023  Biso   1.000  C
  C47      1.0000 0.54475  0.27015  0.03023  Biso   1.000  C
  C48      1.0000 0.16109  0.65376  0.51391  Biso   1.000  C
  C49      1.0000 0.54475  0.13738  0.03023  Biso   1.000  C
  C50      1.0000 0.02832  0.65376  0.64666  Biso   1.000  C
  C51      1.0000 0.02834  0.27015  0.03023  Biso   1.000  C
  C52      1.0000 0.54473  0.65376  0.64666  Biso   1.000  C
  C53      1.0000 0.16111  0.13738  0.03023  Biso   1.000  C
  C54      1.0000 0.54472  0.65376  0.51391  Biso   1.000  C
  C55      1.0000 0.62895  0.72872  0.50070  Biso   1.000  C
  C56      1.0000 0.68762  0.78739  0.44204  Biso   1.000  C
  C57      1.0000 0.02435  0.12412  0.10534  Biso   1.000  C
  C58      1.0000 0.96569  0.06545  0.16400  Biso   1.000  C
  C59      1.0000 0.62893  0.12412  0.10534  Biso   1.000  C
  C60      1.0000 0.68760  0.06545  0.16400  Biso   1.000  C
  C61      1.0000 0.02437  0.72872  0.50070  Biso   1.000  C
  C62      1.0000 0.96570  0.78739  0.44204  Biso   1.000  C
  C63      1.0000 0.02435  0.72870  0.10534  Biso   1.000  C
  C64      1.0000 0.96569  0.78737  0.16400  Biso   1.000  C
  C65      1.0000 0.62895  0.12414  0.50070  Biso   1.000  C
  C66      1.0000 0.68762  0.06547  0.44204  Biso   1.000  C
  C67      1.0000 0.51743  0.23104  0.60758  Biso   1.000  C
  C68      1.0000 0.45876  0.28971  0.66624  Biso   1.000  C
  C69      1.0000 0.12202  0.62649  0.00294  Biso   1.000  C
  C70      1.0000 0.18069  0.56781  0.94428  Biso   1.000  C
  C71      1.0000 0.51745  0.23106  0.00294  Biso   1.000  C
  C72      1.0000 0.45877  0.28973  0.94428  Biso   1.000  C
  C73      1.0000 0.12200  0.62646  0.60758  Biso   1.000  C
  C74      1.0000 0.18068  0.56780  0.66624  Biso   1.000  C
  C75      1.0000 0.12202  0.23106  0.00294  Biso   1.000  C
  C76      1.0000 0.18069  0.28973  0.94428  Biso   1.000  C
  C77      1.0000 0.51743  0.62646  0.60758  Biso   1.000  C
  C78      1.0000 0.45876  0.56780  0.66624  Biso   1.000  C
  O27      1.0000 0.82665  0.92642  0.30302  Biso   1.000  O
  O28      1.0000 0.31973  0.42876  0.80526  Biso   1.000  O
  O29      1.0000 0.70977  0.80954  0.48462  Biso   1.000  O
  O30      1.0000 0.00827  0.97856  0.18615  Biso   1.000  O
  O31      1.0000 0.70976  0.80953  0.35516  Biso   1.000  O
  O32      1.0000 0.87880  0.10804  0.18615  Biso   1.000  O
  O33      1.0000 0.70976  0.10804  0.18615  Biso   1.000  O
  O34      1.0000 0.87881  0.80954  0.48462  Biso   1.000  O
  O35      1.0000 0.70976  0.97856  0.18615  Biso   1.000  O
  O36      1.0000 0.00828  0.80953  0.35516  Biso   1.000  O
  O37      1.0000 0.00827  0.80953  0.18615  Biso   1.000  O
  O38      1.0000 0.70977  0.10805  0.35516  Biso   1.000  O
  O39      1.0000 0.87880  0.80953  0.18615  Biso   1.000  O
  O40      1.0000 0.70977  0.97858  0.48462  Biso   1.000  O
  O41      1.0000 0.43660  0.37660  0.62366  Biso   1.000  O
  O42      1.0000 0.13810  0.54566  0.92213  Biso   1.000  O
  O43      1.0000 0.43661  0.24713  0.75311  Biso   1.000  O
  O44      1.0000 0.26758  0.54566  0.92213  Biso   1.000  O
  O45      1.0000 0.43662  0.37662  0.92213  Biso   1.000  O
  O46      1.0000 0.26756  0.54564  0.62366  Biso   1.000  O
  O47      1.0000 0.43662  0.24714  0.92213  Biso   1.000  O
  O48      1.0000 0.13809  0.54565  0.75311  Biso   1.000  O
  O49      1.0000 0.13810  0.37662  0.92213  Biso   1.000  O
  O50      1.0000 0.43661  0.54565  0.75311  Biso   1.000  O
  O51      1.0000 0.26758  0.24714  0.92213  Biso   1.000  O
  O52      1.0000 0.43660  0.54564  0.62366  Biso   1.000  O
