data_image0
_cell_length_a       18.101
_cell_length_b       18.101
_cell_length_c       18.101
_cell_angle_alpha    60.0036
_cell_angle_beta     60.0036
_cell_angle_gamma    60.0001

_symmetry_space_group_name_H-M    "P 1"
_symmetry_int_tables_number       1

loop_
  _symmetry_equiv_pos_as_xyz
  'x, y, z'

loop_
  _atom_site_label
  _atom_site_occupancy
  _atom_site_fract_x
  _atom_site_fract_y
  _atom_site_fract_z
  _atom_site_thermal_displace_type
  _atom_site_B_iso_or_equiv
  _atom_site_type_symbol
  Zn1      1.0000 0.11865  0.29385  0.29380  Biso   1.000  Zn
  Zn2      1.0000 0.70615  0.88135  0.70620  Biso   1.000  Zn
  Zn3      1.0000 0.88135  0.70615  0.70620  Biso   1.000  Zn
  Zn4      1.0000 0.29385  0.11865  0.29380  Biso   1.000  Zn
  Zn5      1.0000 0.29392  0.29392  0.11841  Biso   1.000  Zn
  Zn6      1.0000 0.29367  0.29367  0.29393  Biso   1.000  Zn
  Zn7      1.0000 0.70608  0.70608  0.88159  Biso   1.000  Zn
  Zn8      1.0000 0.70633  0.70633  0.70607  Biso   1.000  Zn
  H1       1.0000 0.15480  0.45200  0.93360  Biso   1.000  H
  H2       1.0000 0.93280  0.45040  0.15620  Biso   1.000  H
  H3       1.0000 0.93080  0.15620  0.44950  Biso   1.000  H
  H4       1.0000 0.54800  0.84520  0.06640  Biso   1.000  H
  H5       1.0000 0.54960  0.06720  0.84380  Biso   1.000  H
  H6       1.0000 0.84380  0.06920  0.55050  Biso   1.000  H
  H7       1.0000 0.84520  0.54800  0.06640  Biso   1.000  H
  H8       1.0000 0.06720  0.54960  0.84380  Biso   1.000  H
  H9       1.0000 0.06920  0.84380  0.55050  Biso   1.000  H
  H10      1.0000 0.45200  0.15480  0.93360  Biso   1.000  H
  H11      1.0000 0.45040  0.93280  0.15620  Biso   1.000  H
  H12      1.0000 0.15620  0.93080  0.44950  Biso   1.000  H
  C1       1.0000 0.12160  0.38280  0.11390  Biso   1.000  C
  C2       1.0000 0.05170  0.44790  0.05410  Biso   1.000  C
  C3       1.0000 0.09080  0.47360  0.96020  Biso   1.000  C
  C4       1.0000 0.96010  0.47210  0.09240  Biso   1.000  C
  C5       1.0000 0.11800  0.38220  0.38200  Biso   1.000  C
  C6       1.0000 0.95710  0.09250  0.47340  Biso   1.000  C
  C7       1.0000 0.61720  0.87840  0.88610  Biso   1.000  C
  C8       1.0000 0.55210  0.94830  0.94590  Biso   1.000  C
  C9       1.0000 0.52640  0.90920  0.03980  Biso   1.000  C
  C10      1.0000 0.52790  0.03990  0.90760  Biso   1.000  C
  C11      1.0000 0.61780  0.88200  0.61800  Biso   1.000  C
  C12      1.0000 0.90750  0.04290  0.52660  Biso   1.000  C
  C13      1.0000 0.87840  0.61720  0.88610  Biso   1.000  C
  C14      1.0000 0.94830  0.55210  0.94590  Biso   1.000  C
  C15      1.0000 0.90920  0.52640  0.03980  Biso   1.000  C
  C16      1.0000 0.03990  0.52790  0.90760  Biso   1.000  C
  C17      1.0000 0.88200  0.61780  0.61800  Biso   1.000  C
  C18      1.0000 0.04290  0.90750  0.52660  Biso   1.000  C
  C19      1.0000 0.38280  0.12160  0.11390  Biso   1.000  C
  C20      1.0000 0.44790  0.05170  0.05410  Biso   1.000  C
  C21      1.0000 0.47360  0.09080  0.96020  Biso   1.000  C
  C22      1.0000 0.47210  0.96010  0.09240  Biso   1.000  C
  C23      1.0000 0.38220  0.11800  0.38200  Biso   1.000  C
  C24      1.0000 0.09250  0.95710  0.47340  Biso   1.000  C
  C25      1.0000 0.38310  0.38310  0.11400  Biso   1.000  C
  C26      1.0000 0.11690  0.11690  0.38110  Biso   1.000  C
  C27      1.0000 0.05150  0.05150  0.45050  Biso   1.000  C
  C28      1.0000 0.61690  0.61690  0.88600  Biso   1.000  C
  C29      1.0000 0.88310  0.88310  0.61890  Biso   1.000  C
  C30      1.0000 0.94850  0.94850  0.54950  Biso   1.000  C
  O1       1.0000 0.19980  0.36640  0.06970  Biso   1.000  O
  O2       1.0000 0.06940  0.36720  0.19730  Biso   1.000  O
  O3       1.0000 0.19960  0.36660  0.36560  Biso   1.000  O
  O4       1.0000 0.06800  0.36680  0.36570  Biso   1.000  O
  O5       1.0000 0.06830  0.19910  0.36730  Biso   1.000  O
  O6       1.0000 0.63360  0.80020  0.93030  Biso   1.000  O
  O7       1.0000 0.63280  0.93060  0.80270  Biso   1.000  O
  O8       1.0000 0.63340  0.80040  0.63440  Biso   1.000  O
  O9       1.0000 0.63320  0.93200  0.63430  Biso   1.000  O
  O10      1.0000 0.80090  0.93170  0.63270  Biso   1.000  O
  O11      1.0000 0.80020  0.63360  0.93030  Biso   1.000  O
  O12      1.0000 0.93060  0.63280  0.80270  Biso   1.000  O
  O13      1.0000 0.80040  0.63340  0.63440  Biso   1.000  O
  O14      1.0000 0.93200  0.63320  0.63430  Biso   1.000  O
  O15      1.0000 0.93170  0.80090  0.63270  Biso   1.000  O
  O16      1.0000 0.36640  0.19980  0.06970  Biso   1.000  O
  O17      1.0000 0.36720  0.06940  0.19730  Biso   1.000  O
  O18      1.0000 0.36660  0.19960  0.36560  Biso   1.000  O
  O19      1.0000 0.36680  0.06800  0.36570  Biso   1.000  O
  O20      1.0000 0.19910  0.06830  0.36730  Biso   1.000  O
  O21      1.0000 0.24870  0.24870  0.25120  Biso   1.000  O
  O22      1.0000 0.36630  0.36630  0.06820  Biso   1.000  O
  O23      1.0000 0.36620  0.36620  0.19910  Biso   1.000  O
  O24      1.0000 0.75130  0.75130  0.74880  Biso   1.000  O
  O25      1.0000 0.63370  0.63370  0.93180  Biso   1.000  O
  O26      1.0000 0.63380  0.63380  0.80090  Biso   1.000  O
  Zn9      1.0000 0.90453  0.75527  0.43944  Biso   1.000  Zn
  Zn10     1.0000 0.08141  0.75526  0.26258  Biso   1.000  Zn
  Zn11     1.0000 0.90452  0.75526  0.26258  Biso   1.000  Zn
  Zn12     1.0000 0.90452  0.93215  0.26258  Biso   1.000  Zn
  Zn13     1.0000 0.51546  0.33617  0.66673  Biso   1.000  Zn
  Zn14     1.0000 0.33858  0.33618  0.84359  Biso   1.000  Zn
  Zn15     1.0000 0.51547  0.15930  0.84359  Biso   1.000  Zn
  Zn16     1.0000 0.51547  0.33618  0.84359  Biso   1.000  Zn
  H13      1.0000 0.06360  0.59036  0.61021  Biso   1.000  H
  H14      1.0000 0.26706  0.59040  0.40666  Biso   1.000  H
  H15      1.0000 0.75466  0.89936  0.09774  Biso   1.000  H
  H16      1.0000 0.75466  0.10278  0.09774  Biso   1.000  H
  H17      1.0000 0.75468  0.10279  0.40666  Biso   1.000  H
  H18      1.0000 0.75463  0.89933  0.61021  Biso   1.000  H
  H19      1.0000 0.06363  0.59039  0.09774  Biso   1.000  H
  H20      1.0000 0.26704  0.59039  0.09774  Biso   1.000  H
  H21      1.0000 0.26704  0.89936  0.09774  Biso   1.000  H
  H22      1.0000 0.06363  0.10278  0.09774  Biso   1.000  H
  H23      1.0000 0.75468  0.59040  0.40666  Biso   1.000  H
  H24      1.0000 0.75463  0.59036  0.61021  Biso   1.000  H
  H25      1.0000 0.35639  0.50109  0.49597  Biso   1.000  H
  H26      1.0000 0.15293  0.50104  0.69951  Biso   1.000  H
  H27      1.0000 0.66533  0.98867  0.00844  Biso   1.000  H
  H28      1.0000 0.66533  0.19209  0.00844  Biso   1.000  H
  H29      1.0000 0.66532  0.50104  0.69951  Biso   1.000  H
  H30      1.0000 0.66536  0.50109  0.49597  Biso   1.000  H
  H31      1.0000 0.35636  0.98867  0.00844  Biso   1.000  H
  H32      1.0000 0.15295  0.19209  0.00844  Biso   1.000  H
  H33      1.0000 0.15295  0.50106  0.00844  Biso   1.000  H
  H34      1.0000 0.35636  0.50106  0.00844  Biso   1.000  H
  H35      1.0000 0.66532  0.98866  0.69951  Biso   1.000  H
  H36      1.0000 0.66536  0.19212  0.49597  Biso   1.000  H
  C31      1.0000 0.12653  0.57250  0.58301  Biso   1.000  C
  C32      1.0000 0.23986  0.57254  0.46958  Biso   1.000  C
  C33      1.0000 0.73679  0.96229  0.07988  Biso   1.000  C
  C34      1.0000 0.73679  0.07557  0.07988  Biso   1.000  C
  C35      1.0000 0.73681  0.07559  0.46958  Biso   1.000  C
  C36      1.0000 0.73677  0.96226  0.58301  Biso   1.000  C
  C37      1.0000 0.12656  0.57252  0.07988  Biso   1.000  C
  C38      1.0000 0.23984  0.57252  0.07988  Biso   1.000  C
  C39      1.0000 0.23984  0.96229  0.07988  Biso   1.000  C
  C40      1.0000 0.12656  0.07557  0.07988  Biso   1.000  C
  C41      1.0000 0.73682  0.57254  0.46958  Biso   1.000  C
  C42      1.0000 0.73677  0.57250  0.58301  Biso   1.000  C
  C43      1.0000 0.29346  0.51895  0.52317  Biso   1.000  C
  C44      1.0000 0.18013  0.51891  0.63659  Biso   1.000  C
  C45      1.0000 0.68320  0.01588  0.02630  Biso   1.000  C
  C46      1.0000 0.68320  0.12916  0.02630  Biso   1.000  C
  C47      1.0000 0.68318  0.51891  0.63659  Biso   1.000  C
  C48      1.0000 0.68322  0.51895  0.52317  Biso   1.000  C
  C49      1.0000 0.29343  0.01588  0.02630  Biso   1.000  C
  C50      1.0000 0.18015  0.12916  0.02630  Biso   1.000  C
  C51      1.0000 0.18015  0.51893  0.02630  Biso   1.000  C
  C52      1.0000 0.29343  0.51893  0.02630  Biso   1.000  C
  C53      1.0000 0.68318  0.01586  0.63659  Biso   1.000  C
  C54      1.0000 0.68322  0.12919  0.52317  Biso   1.000  C
  C55      1.0000 0.08944  0.65882  0.44746  Biso   1.000  C
  C56      1.0000 0.14801  0.60026  0.50602  Biso   1.000  C
  C57      1.0000 0.80806  0.94016  0.16614  Biso   1.000  C
  C58      1.0000 0.74949  0.99873  0.10759  Biso   1.000  C
  C59      1.0000 0.80807  0.94018  0.44746  Biso   1.000  C
  C60      1.0000 0.74951  0.99875  0.50602  Biso   1.000  C
  C61      1.0000 0.08942  0.65880  0.16614  Biso   1.000  C
  C62      1.0000 0.14798  0.60023  0.10759  Biso   1.000  C
  C63      1.0000 0.08942  0.94016  0.16614  Biso   1.000  C
  C64      1.0000 0.14798  0.99873  0.10759  Biso   1.000  C
  C65      1.0000 0.80807  0.65882  0.44746  Biso   1.000  C
  C66      1.0000 0.74951  0.60026  0.50602  Biso   1.000  C
  C67      1.0000 0.33056  0.43263  0.65872  Biso   1.000  C
  C68      1.0000 0.27199  0.49119  0.60016  Biso   1.000  C
  C69      1.0000 0.61193  0.15128  0.94003  Biso   1.000  C
  C70      1.0000 0.67050  0.09272  0.99859  Biso   1.000  C
  C71      1.0000 0.61192  0.43263  0.65872  Biso   1.000  C
  C72      1.0000 0.67048  0.49119  0.60016  Biso   1.000  C
  C73      1.0000 0.33057  0.15128  0.94003  Biso   1.000  C
  C74      1.0000 0.27201  0.09272  0.99859  Biso   1.000  C
  C75      1.0000 0.33057  0.43265  0.94003  Biso   1.000  C
  C76      1.0000 0.27201  0.49122  0.99859  Biso   1.000  C
  C77      1.0000 0.61192  0.15127  0.65872  Biso   1.000  C
  C78      1.0000 0.67048  0.09270  0.60016  Biso   1.000  C
  O27      1.0000 0.94875  0.79949  0.30680  Biso   1.000  O
  O28      1.0000 0.47125  0.29196  0.79938  Biso   1.000  O
  O29      1.0000 0.00492  0.68171  0.48620  Biso   1.000  O
  O30      1.0000 0.12817  0.68170  0.36295  Biso   1.000  O
  O31      1.0000 0.83095  0.85565  0.18903  Biso   1.000  O
  O32      1.0000 0.83095  0.97891  0.18903  Biso   1.000  O
  O33      1.0000 0.83096  0.97892  0.36295  Biso   1.000  O
  O34      1.0000 0.83096  0.85566  0.48620  Biso   1.000  O
  O35      1.0000 0.00490  0.68169  0.18903  Biso   1.000  O
  O36      1.0000 0.12816  0.68169  0.18903  Biso   1.000  O
  O37      1.0000 0.12816  0.85565  0.18903  Biso   1.000  O
  O38      1.0000 0.00490  0.97891  0.18903  Biso   1.000  O
  O39      1.0000 0.83096  0.68170  0.36295  Biso   1.000  O
  O40      1.0000 0.83096  0.68171  0.48620  Biso   1.000  O
  O41      1.0000 0.41507  0.40974  0.61998  Biso   1.000  O
  O42      1.0000 0.29182  0.40975  0.74322  Biso   1.000  O
  O43      1.0000 0.58904  0.11254  0.91715  Biso   1.000  O
  O44      1.0000 0.58904  0.23580  0.91715  Biso   1.000  O
  O45      1.0000 0.58904  0.40975  0.74322  Biso   1.000  O
  O46      1.0000 0.58903  0.40974  0.61998  Biso   1.000  O
  O47      1.0000 0.41509  0.11254  0.91715  Biso   1.000  O
  O48      1.0000 0.29183  0.23580  0.91715  Biso   1.000  O
  O49      1.0000 0.29183  0.40976  0.91715  Biso   1.000  O
  O50      1.0000 0.41509  0.40976  0.91715  Biso   1.000  O
  O51      1.0000 0.58903  0.11253  0.74322  Biso   1.000  O
  O52      1.0000 0.58903  0.23579  0.61998  Biso   1.000  O
