data_image0
_cell_length_a       18.101
_cell_length_b       18.101
_cell_length_c       18.101
_cell_angle_alpha    60.0036
_cell_angle_beta     60.0036
_cell_angle_gamma    60.0001

_symmetry_space_group_name_H-M    "P 1"
_symmetry_int_tables_number       1

loop_
  _symmetry_equiv_pos_as_xyz
  'x, y, z'

loop_
  _atom_site_label
  _atom_site_occupancy
  _atom_site_fract_x
  _atom_site_fract_y
  _atom_site_fract_z
  _atom_site_thermal_displace_type
  _atom_site_B_iso_or_equiv
  _atom_site_type_symbol
  Zn1      1.0000 0.11865  0.29385  0.29380  Biso   1.000  Zn
  Zn2      1.0000 0.70615  0.88135  0.70620  Biso   1.000  Zn
  Zn3      1.0000 0.88135  0.70615  0.70620  Biso   1.000  Zn
  Zn4      1.0000 0.29385  0.11865  0.29380  Biso   1.000  Zn
  Zn5      1.0000 0.29392  0.29392  0.11841  Biso   1.000  Zn
  Zn6      1.0000 0.29367  0.29367  0.29393  Biso   1.000  Zn
  Zn7      1.0000 0.70608  0.70608  0.88159  Biso   1.000  Zn
  Zn8      1.0000 0.70633  0.70633  0.70607  Biso   1.000  Zn
  H1       1.0000 0.15480  0.45200  0.93360  Biso   1.000  H
  H2       1.0000 0.93280  0.45040  0.15620  Biso   1.000  H
  H3       1.0000 0.93080  0.15620  0.44950  Biso   1.000  H
  H4       1.0000 0.54800  0.84520  0.06640  Biso   1.000  H
  H5       1.0000 0.54960  0.06720  0.84380  Biso   1.000  H
  H6       1.0000 0.84380  0.06920  0.55050  Biso   1.000  H
  H7       1.0000 0.84520  0.54800  0.06640  Biso   1.000  H
  H8       1.0000 0.06720  0.54960  0.84380  Biso   1.000  H
  H9       1.0000 0.06920  0.84380  0.55050  Biso   1.000  H
  H10      1.0000 0.45200  0.15480  0.93360  Biso   1.000  H
  H11      1.0000 0.45040  0.93280  0.15620  Biso   1.000  H
  H12      1.0000 0.15620  0.93080  0.44950  Biso   1.000  H
  C1       1.0000 0.12160  0.38280  0.11390  Biso   1.000  C
  C2       1.0000 0.05170  0.44790  0.05410  Biso   1.000  C
  C3       1.0000 0.09080  0.47360  0.96020  Biso   1.000  C
  C4       1.0000 0.96010  0.47210  0.09240  Biso   1.000  C
  C5       1.0000 0.11800  0.38220  0.38200  Biso   1.000  C
  C6       1.0000 0.95710  0.09250  0.47340  Biso   1.000  C
  C7       1.0000 0.61720  0.87840  0.88610  Biso   1.000  C
  C8       1.0000 0.55210  0.94830  0.94590  Biso   1.000  C
  C9       1.0000 0.52640  0.90920  0.03980  Biso   1.000  C
  C10      1.0000 0.52790  0.03990  0.90760  Biso   1.000  C
  C11      1.0000 0.61780  0.88200  0.61800  Biso   1.000  C
  C12      1.0000 0.90750  0.04290  0.52660  Biso   1.000  C
  C13      1.0000 0.87840  0.61720  0.88610  Biso   1.000  C
  C14      1.0000 0.94830  0.55210  0.94590  Biso   1.000  C
  C15      1.0000 0.90920  0.52640  0.03980  Biso   1.000  C
  C16      1.0000 0.03990  0.52790  0.90760  Biso   1.000  C
  C17      1.0000 0.88200  0.61780  0.61800  Biso   1.000  C
  C18      1.0000 0.04290  0.90750  0.52660  Biso   1.000  C
  C19      1.0000 0.38280  0.12160  0.11390  Biso   1.000  C
  C20      1.0000 0.44790  0.05170  0.05410  Biso   1.000  C
  C21      1.0000 0.47360  0.09080  0.96020  Biso   1.000  C
  C22      1.0000 0.47210  0.96010  0.09240  Biso   1.000  C
  C23      1.0000 0.38220  0.11800  0.38200  Biso   1.000  C
  C24      1.0000 0.09250  0.95710  0.47340  Biso   1.000  C
  C25      1.0000 0.38310  0.38310  0.11400  Biso   1.000  C
  C26      1.0000 0.11690  0.11690  0.38110  Biso   1.000  C
  C27      1.0000 0.05150  0.05150  0.45050  Biso   1.000  C
  C28      1.0000 0.61690  0.61690  0.88600  Biso   1.000  C
  C29      1.0000 0.88310  0.88310  0.61890  Biso   1.000  C
  C30      1.0000 0.94850  0.94850  0.54950  Biso   1.000  C
  O1       1.0000 0.19980  0.36640  0.06970  Biso   1.000  O
  O2       1.0000 0.06940  0.36720  0.19730  Biso   1.000  O
  O3       1.0000 0.19960  0.36660  0.36560  Biso   1.000  O
  O4       1.0000 0.06800  0.36680  0.36570  Biso   1.000  O
  O5       1.0000 0.06830  0.19910  0.36730  Biso   1.000  O
  O6       1.0000 0.63360  0.80020  0.93030  Biso   1.000  O
  O7       1.0000 0.63280  0.93060  0.80270  Biso   1.000  O
  O8       1.0000 0.63340  0.80040  0.63440  Biso   1.000  O
  O9       1.0000 0.63320  0.93200  0.63430  Biso   1.000  O
  O10      1.0000 0.80090  0.93170  0.63270  Biso   1.000  O
  O11      1.0000 0.80020  0.63360  0.93030  Biso   1.000  O
  O12      1.0000 0.93060  0.63280  0.80270  Biso   1.000  O
  O13      1.0000 0.80040  0.63340  0.63440  Biso   1.000  O
  O14      1.0000 0.93200  0.63320  0.63430  Biso   1.000  O
  O15      1.0000 0.93170  0.80090  0.63270  Biso   1.000  O
  O16      1.0000 0.36640  0.19980  0.06970  Biso   1.000  O
  O17      1.0000 0.36720  0.06940  0.19730  Biso   1.000  O
  O18      1.0000 0.36660  0.19960  0.36560  Biso   1.000  O
  O19      1.0000 0.36680  0.06800  0.36570  Biso   1.000  O
  O20      1.0000 0.19910  0.06830  0.36730  Biso   1.000  O
  O21      1.0000 0.24870  0.24870  0.25120  Biso   1.000  O
  O22      1.0000 0.36630  0.36630  0.06820  Biso   1.000  O
  O23      1.0000 0.36620  0.36620  0.19910  Biso   1.000  O
  O24      1.0000 0.75130  0.75130  0.74880  Biso   1.000  O
  O25      1.0000 0.63370  0.63370  0.93180  Biso   1.000  O
  O26      1.0000 0.63380  0.63380  0.80090  Biso   1.000  O
  Zn9      1.0000 0.78058  0.43202  0.88585  Biso   1.000  Zn
  Zn10     1.0000 0.78058  0.25775  0.88585  Biso   1.000  Zn
  Zn11     1.0000 0.36674  0.84524  0.29898  Biso   1.000  Zn
  Zn12     1.0000 0.95485  0.25775  0.88585  Biso   1.000  Zn
  Zn13     1.0000 0.36675  0.67097  0.47323  Biso   1.000  Zn
  Zn14     1.0000 0.19248  0.84525  0.47323  Biso   1.000  Zn
  Zn15     1.0000 0.36675  0.84525  0.47323  Biso   1.000  Zn
  Zn16     1.0000 0.78059  0.25776  0.06010  Biso   1.000  Zn
  C31      1.0000 0.54824  0.51460  0.65468  Biso   1.000  C
  C32      1.0000 0.98715  0.58839  0.70440  Biso   1.000  C
  C33      1.0000 0.16018  0.02673  0.65468  Biso   1.000  C
  C34      1.0000 0.62793  0.49756  0.12561  Biso   1.000  C
  C35      1.0000 0.54821  0.02671  0.14262  Biso   1.000  C
  C36      1.0000 0.62791  0.49754  0.73322  Biso   1.000  C
  C37      1.0000 0.46058  0.66429  0.56703  Biso   1.000  C
  C38      1.0000 0.59909  0.46431  0.70440  Biso   1.000  C
  C39      1.0000 0.59909  0.58839  0.70440  Biso   1.000  C
  C40      1.0000 0.02039  0.10510  0.12561  Biso   1.000  C
  C41      1.0000 0.02037  0.49754  0.73322  Biso   1.000  C
  C42      1.0000 0.54822  0.51458  0.26668  Biso   1.000  C
  C43      1.0000 0.03610  0.63868  0.65468  Biso   1.000  C
  C44      1.0000 0.96153  0.43870  0.79205  Biso   1.000  C
  C45      1.0000 0.68676  0.16393  0.06678  Biso   1.000  C
  C46      1.0000 0.18580  0.93907  0.56703  Biso   1.000  C
  C47      1.0000 0.96153  0.16392  0.79205  Biso   1.000  C
  C48      1.0000 0.68675  0.43870  0.79205  Biso   1.000  C
  C49      1.0000 0.54824  0.63868  0.65468  Biso   1.000  C
  C50      1.0000 0.11123  0.07626  0.70440  Biso   1.000  C
  C51      1.0000 0.18580  0.66429  0.56703  Biso   1.000  C
  C52      1.0000 0.98714  0.07626  0.70440  Biso   1.000  C
  C53      1.0000 0.54821  0.63865  0.14262  Biso   1.000  C
  C54      1.0000 0.96155  0.16393  0.06678  Biso   1.000  C
  C55      1.0000 0.59911  0.07628  0.09240  Biso   1.000  C
  C56      1.0000 0.46056  0.93906  0.29229  Biso   1.000  C
  C57      1.0000 0.12696  0.60546  0.62586  Biso   1.000  C
  C58      1.0000 0.03610  0.02673  0.65468  Biso   1.000  C
  C59      1.0000 0.98717  0.07628  0.21646  Biso   1.000  C
  C60      1.0000 0.68677  0.43872  0.06678  Biso   1.000  C
  C61      1.0000 0.54822  0.02671  0.26668  Biso   1.000  C
  C62      1.0000 0.11125  0.07628  0.09240  Biso   1.000  C
  C63      1.0000 0.51940  0.99789  0.23347  Biso   1.000  C
  C64      1.0000 0.16018  0.51460  0.65468  Biso   1.000  C
  C65      1.0000 0.03608  0.02671  0.26668  Biso   1.000  C
  C66      1.0000 0.46056  0.66428  0.29229  Biso   1.000  C
  C67      1.0000 0.16016  0.02671  0.14262  Biso   1.000  C
  C68      1.0000 0.59911  0.58842  0.09240  Biso   1.000  C
  C69      1.0000 0.59912  0.46434  0.21646  Biso   1.000  C
  C70      1.0000 0.02037  0.10508  0.73322  Biso   1.000  C
  C71      1.0000 0.11123  0.46431  0.70440  Biso   1.000  C
  C72      1.0000 0.12696  0.99791  0.62586  Biso   1.000  C
  C73      1.0000 0.51940  0.60543  0.23347  Biso   1.000  C
  C74      1.0000 0.18578  0.93906  0.29229  Biso   1.000  C
  C75      1.0000 0.12694  0.99789  0.23347  Biso   1.000  C
  C76      1.0000 0.62793  0.10510  0.12561  Biso   1.000  C
  C77      1.0000 0.59911  0.07628  0.21646  Biso   1.000  C
  C78      1.0000 0.51942  0.60546  0.62586  Biso   1.000  C
  O27      1.0000 0.27013  0.62178  0.54612  Biso   1.000  O
  O28      1.0000 0.43965  0.62177  0.37662  Biso   1.000  O
  O29      1.0000 0.87720  0.48121  0.81296  Biso   1.000  O
  O30      1.0000 0.43965  0.91814  0.24979  Biso   1.000  O
  O31      1.0000 0.27012  0.91814  0.24979  Biso   1.000  O
  O32      1.0000 0.70767  0.48122  0.98246  Biso   1.000  O
  O33      1.0000 0.70768  0.18485  0.10928  Biso   1.000  O
  O34      1.0000 0.87721  0.18485  0.10928  Biso   1.000  O
  O35      1.0000 0.14329  0.74863  0.54612  Biso   1.000  O
  O36      1.0000 0.43966  0.74863  0.54612  Biso   1.000  O
  O37      1.0000 0.00404  0.35437  0.81296  Biso   1.000  O
  O38      1.0000 0.14328  0.91815  0.37662  Biso   1.000  O
  O39      1.0000 0.00404  0.18483  0.81296  Biso   1.000  O
  O40      1.0000 0.70767  0.35437  0.81296  Biso   1.000  O
  O41      1.0000 0.87720  0.18483  0.81296  Biso   1.000  O
  O42      1.0000 0.43965  0.74861  0.24979  Biso   1.000  O
  O43      1.0000 0.32318  0.80167  0.42966  Biso   1.000  O
  O44      1.0000 0.43966  0.62178  0.54612  Biso   1.000  O
  O45      1.0000 0.70767  0.48121  0.81296  Biso   1.000  O
  O46      1.0000 0.70767  0.18484  0.98246  Biso   1.000  O
  O47      1.0000 0.27013  0.91816  0.54612  Biso   1.000  O
  O48      1.0000 0.00405  0.18484  0.98246  Biso   1.000  O
  O49      1.0000 0.82415  0.30132  0.92941  Biso   1.000  O
  O50      1.0000 0.14329  0.91816  0.54612  Biso   1.000  O
  O51      1.0000 0.70768  0.35438  0.10928  Biso   1.000  O
  O52      1.0000 0.43966  0.91815  0.37662  Biso   1.000  O
  H13      1.0000 0.52597  0.48230  0.63240  Biso   1.000  H
  H14      1.0000 0.91085  0.62467  0.72441  Biso   1.000  H
  H15      1.0000 0.23702  0.00446  0.63240  Biso   1.000  H
  H16      1.0000 0.52594  0.00443  0.11033  Biso   1.000  H
  H17      1.0000 0.62136  0.38747  0.72667  Biso   1.000  H
  H18      1.0000 0.61910  0.62467  0.72441  Biso   1.000  H
  H19      1.0000 0.52595  0.48229  0.34351  Biso   1.000  H
  H20      1.0000 0.00381  0.71552  0.63240  Biso   1.000  H
  H21      1.0000 0.52597  0.71552  0.63240  Biso   1.000  H
  H22      1.0000 0.14352  0.09853  0.72667  Biso   1.000  H
  H23      1.0000 0.91030  0.09853  0.72667  Biso   1.000  H
  H24      1.0000 0.52594  0.71549  0.11033  Biso   1.000  H
  H25      1.0000 0.62138  0.09855  0.01557  Biso   1.000  H
  H26      1.0000 0.00381  0.00446  0.63240  Biso   1.000  H
  H27      1.0000 0.91087  0.09630  0.25272  Biso   1.000  H
  H28      1.0000 0.52821  0.00670  0.34297  Biso   1.000  H
  H29      1.0000 0.14752  0.09629  0.01611  Biso   1.000  H
  H30      1.0000 0.23648  0.47832  0.63467  Biso   1.000  H
  H31      1.0000 0.00379  0.00444  0.34351  Biso   1.000  H
  H32      1.0000 0.23700  0.00443  0.11033  Biso   1.000  H
  H33      1.0000 0.61912  0.62469  0.01611  Biso   1.000  H
  H34      1.0000 0.61913  0.38804  0.25273  Biso   1.000  H
  H35      1.0000 0.14750  0.38801  0.72441  Biso   1.000  H
  H36      1.0000 0.62139  0.09856  0.24874  Biso   1.000  H
