data_image0
_cell_length_a       18.101
_cell_length_b       18.101
_cell_length_c       18.101
_cell_angle_alpha    60.0036
_cell_angle_beta     60.0036
_cell_angle_gamma    60.0001

_symmetry_space_group_name_H-M    "P 1"
_symmetry_int_tables_number       1

loop_
  _symmetry_equiv_pos_as_xyz
  'x, y, z'

loop_
  _atom_site_label
  _atom_site_occupancy
  _atom_site_fract_x
  _atom_site_fract_y
  _atom_site_fract_z
  _atom_site_thermal_displace_type
  _atom_site_B_iso_or_equiv
  _atom_site_type_symbol
  Zn1      1.0000 0.11865  0.29385  0.29380  Biso   1.000  Zn
  Zn2      1.0000 0.70615  0.88135  0.70620  Biso   1.000  Zn
  Zn3      1.0000 0.88135  0.70615  0.70620  Biso   1.000  Zn
  Zn4      1.0000 0.29385  0.11865  0.29380  Biso   1.000  Zn
  Zn5      1.0000 0.29392  0.29392  0.11841  Biso   1.000  Zn
  Zn6      1.0000 0.29367  0.29367  0.29393  Biso   1.000  Zn
  Zn7      1.0000 0.70608  0.70608  0.88159  Biso   1.000  Zn
  Zn8      1.0000 0.70633  0.70633  0.70607  Biso   1.000  Zn
  H1       1.0000 0.15480  0.45200  0.93360  Biso   1.000  H
  H2       1.0000 0.93280  0.45040  0.15620  Biso   1.000  H
  H3       1.0000 0.93080  0.15620  0.44950  Biso   1.000  H
  H4       1.0000 0.54800  0.84520  0.06640  Biso   1.000  H
  H5       1.0000 0.54960  0.06720  0.84380  Biso   1.000  H
  H6       1.0000 0.84380  0.06920  0.55050  Biso   1.000  H
  H7       1.0000 0.84520  0.54800  0.06640  Biso   1.000  H
  H8       1.0000 0.06720  0.54960  0.84380  Biso   1.000  H
  H9       1.0000 0.06920  0.84380  0.55050  Biso   1.000  H
  H10      1.0000 0.45200  0.15480  0.93360  Biso   1.000  H
  H11      1.0000 0.45040  0.93280  0.15620  Biso   1.000  H
  H12      1.0000 0.15620  0.93080  0.44950  Biso   1.000  H
  C1       1.0000 0.12160  0.38280  0.11390  Biso   1.000  C
  C2       1.0000 0.05170  0.44790  0.05410  Biso   1.000  C
  C3       1.0000 0.09080  0.47360  0.96020  Biso   1.000  C
  C4       1.0000 0.96010  0.47210  0.09240  Biso   1.000  C
  C5       1.0000 0.11800  0.38220  0.38200  Biso   1.000  C
  C6       1.0000 0.95710  0.09250  0.47340  Biso   1.000  C
  C7       1.0000 0.61720  0.87840  0.88610  Biso   1.000  C
  C8       1.0000 0.55210  0.94830  0.94590  Biso   1.000  C
  C9       1.0000 0.52640  0.90920  0.03980  Biso   1.000  C
  C10      1.0000 0.52790  0.03990  0.90760  Biso   1.000  C
  C11      1.0000 0.61780  0.88200  0.61800  Biso   1.000  C
  C12      1.0000 0.90750  0.04290  0.52660  Biso   1.000  C
  C13      1.0000 0.87840  0.61720  0.88610  Biso   1.000  C
  C14      1.0000 0.94830  0.55210  0.94590  Biso   1.000  C
  C15      1.0000 0.90920  0.52640  0.03980  Biso   1.000  C
  C16      1.0000 0.03990  0.52790  0.90760  Biso   1.000  C
  C17      1.0000 0.88200  0.61780  0.61800  Biso   1.000  C
  C18      1.0000 0.04290  0.90750  0.52660  Biso   1.000  C
  C19      1.0000 0.38280  0.12160  0.11390  Biso   1.000  C
  C20      1.0000 0.44790  0.05170  0.05410  Biso   1.000  C
  C21      1.0000 0.47360  0.09080  0.96020  Biso   1.000  C
  C22      1.0000 0.47210  0.96010  0.09240  Biso   1.000  C
  C23      1.0000 0.38220  0.11800  0.38200  Biso   1.000  C
  C24      1.0000 0.09250  0.95710  0.47340  Biso   1.000  C
  C25      1.0000 0.38310  0.38310  0.11400  Biso   1.000  C
  C26      1.0000 0.11690  0.11690  0.38110  Biso   1.000  C
  C27      1.0000 0.05150  0.05150  0.45050  Biso   1.000  C
  C28      1.0000 0.61690  0.61690  0.88600  Biso   1.000  C
  C29      1.0000 0.88310  0.88310  0.61890  Biso   1.000  C
  C30      1.0000 0.94850  0.94850  0.54950  Biso   1.000  C
  O1       1.0000 0.19980  0.36640  0.06970  Biso   1.000  O
  O2       1.0000 0.06940  0.36720  0.19730  Biso   1.000  O
  O3       1.0000 0.19960  0.36660  0.36560  Biso   1.000  O
  O4       1.0000 0.06800  0.36680  0.36570  Biso   1.000  O
  O5       1.0000 0.06830  0.19910  0.36730  Biso   1.000  O
  O6       1.0000 0.63360  0.80020  0.93030  Biso   1.000  O
  O7       1.0000 0.63280  0.93060  0.80270  Biso   1.000  O
  O8       1.0000 0.63340  0.80040  0.63440  Biso   1.000  O
  O9       1.0000 0.63320  0.93200  0.63430  Biso   1.000  O
  O10      1.0000 0.80090  0.93170  0.63270  Biso   1.000  O
  O11      1.0000 0.80020  0.63360  0.93030  Biso   1.000  O
  O12      1.0000 0.93060  0.63280  0.80270  Biso   1.000  O
  O13      1.0000 0.80040  0.63340  0.63440  Biso   1.000  O
  O14      1.0000 0.93200  0.63320  0.63430  Biso   1.000  O
  O15      1.0000 0.93170  0.80090  0.63270  Biso   1.000  O
  O16      1.0000 0.36640  0.19980  0.06970  Biso   1.000  O
  O17      1.0000 0.36720  0.06940  0.19730  Biso   1.000  O
  O18      1.0000 0.36660  0.19960  0.36560  Biso   1.000  O
  O19      1.0000 0.36680  0.06800  0.36570  Biso   1.000  O
  O20      1.0000 0.19910  0.06830  0.36730  Biso   1.000  O
  O21      1.0000 0.24870  0.24870  0.25120  Biso   1.000  O
  O22      1.0000 0.36630  0.36630  0.06820  Biso   1.000  O
  O23      1.0000 0.36620  0.36620  0.19910  Biso   1.000  O
  O24      1.0000 0.75130  0.75130  0.74880  Biso   1.000  O
  O25      1.0000 0.63370  0.63370  0.93180  Biso   1.000  O
  O26      1.0000 0.63380  0.63380  0.80090  Biso   1.000  O
  Zn9      1.0000 0.09500  0.56355  0.58061  Biso   1.000  Zn
  Zn10     1.0000 0.49730  0.16106  0.98325  Biso   1.000  Zn
  Zn11     1.0000 0.49730  0.98325  0.98325  Biso   1.000  Zn
  Zn12     1.0000 0.09499  0.38574  0.58061  Biso   1.000  Zn
  Zn13     1.0000 0.09452  0.56389  0.40259  Biso   1.000  Zn
  Zn14     1.0000 0.91678  0.56370  0.58071  Biso   1.000  Zn
  Zn15     1.0000 0.49778  0.98291  0.16127  Biso   1.000  Zn
  Zn16     1.0000 0.67551  0.98309  0.98314  Biso   1.000  Zn
  H13      1.0000 0.24408  0.21986  0.43464  Biso   1.000  H
  H14      1.0000 0.25438  0.42150  0.21940  Biso   1.000  H
  H15      1.0000 0.93513  0.22097  0.74343  Biso   1.000  H
  H16      1.0000 0.73072  0.41896  0.74577  Biso   1.000  H
  H17      1.0000 0.24492  0.42099  0.74089  Biso   1.000  H
  H18      1.0000 0.34822  0.82047  0.12921  Biso   1.000  H
  H19      1.0000 0.33791  0.81722  0.34446  Biso   1.000  H
  H20      1.0000 0.65717  0.82139  0.82042  Biso   1.000  H
  H21      1.0000 0.86158  0.81732  0.81808  Biso   1.000  H
  H22      1.0000 0.34737  0.32867  0.82296  Biso   1.000  H
  H23      1.0000 0.34822  0.32694  0.12921  Biso   1.000  H
  H24      1.0000 0.33792  0.12530  0.34446  Biso   1.000  H
  H25      1.0000 0.65717  0.32582  0.82042  Biso   1.000  H
  H26      1.0000 0.86158  0.12784  0.81808  Biso   1.000  H
  H27      1.0000 0.34738  0.12580  0.82296  Biso   1.000  H
  H28      1.0000 0.24408  0.72632  0.43464  Biso   1.000  H
  H29      1.0000 0.25438  0.72958  0.21940  Biso   1.000  H
  H30      1.0000 0.93513  0.72541  0.74343  Biso   1.000  H
  H31      1.0000 0.73072  0.72948  0.74577  Biso   1.000  H
  H32      1.0000 0.24493  0.21813  0.74089  Biso   1.000  H
  H33      1.0000 0.73160  0.72826  0.43678  Biso   1.000  H
  H34      1.0000 0.94906  0.72937  0.21706  Biso   1.000  H
  H35      1.0000 0.86070  0.81854  0.12708  Biso   1.000  H
  H36      1.0000 0.64324  0.81742  0.34680  Biso   1.000  H
  C31      1.0000 0.19085  0.37707  0.39763  Biso   1.000  C
  C32      1.0000 0.25144  0.31800  0.33541  Biso   1.000  C
  C33      1.0000 0.26217  0.24599  0.37140  Biso   1.000  C
  C34      1.0000 0.27411  0.35836  0.24583  Biso   1.000  C
  C35      1.0000 0.90711  0.38032  0.67938  Biso   1.000  C
  C36      1.0000 0.85211  0.32084  0.73560  Biso   1.000  C
  C37      1.0000 0.87189  0.24761  0.76173  Biso   1.000  C
  C38      1.0000 0.75888  0.35592  0.76356  Biso   1.000  C
  C39      1.0000 0.26109  0.35785  0.76133  Biso   1.000  C
  C40      1.0000 0.40144  0.88748  0.16622  Biso   1.000  C
  C41      1.0000 0.34085  0.82678  0.22845  Biso   1.000  C
  C42      1.0000 0.33013  0.80146  0.19245  Biso   1.000  C
  C43      1.0000 0.31819  0.80024  0.31802  Biso   1.000  C
  C44      1.0000 0.68518  0.88870  0.88448  Biso   1.000  C
  C45      1.0000 0.74018  0.83044  0.82825  Biso   1.000  C
  C46      1.0000 0.72041  0.80309  0.80212  Biso   1.000  C
  C47      1.0000 0.83341  0.80024  0.80029  Biso   1.000  C
  C48      1.0000 0.33120  0.30213  0.80253  Biso   1.000  C
  C49      1.0000 0.40144  0.16973  0.16622  Biso   1.000  C
  C50      1.0000 0.34085  0.22880  0.22845  Biso   1.000  C
  C51      1.0000 0.33012  0.30081  0.19245  Biso   1.000  C
  C52      1.0000 0.31819  0.18844  0.31802  Biso   1.000  C
  C53      1.0000 0.68519  0.16647  0.88448  Biso   1.000  C
  C54      1.0000 0.74019  0.22595  0.82825  Biso   1.000  C
  C55      1.0000 0.72041  0.29918  0.80212  Biso   1.000  C
  C56      1.0000 0.83342  0.19088  0.80029  Biso   1.000  C
  C57      1.0000 0.33121  0.18894  0.80253  Biso   1.000  C
  C58      1.0000 0.19086  0.65932  0.39763  Biso   1.000  C
  C59      1.0000 0.25145  0.72002  0.33541  Biso   1.000  C
  C60      1.0000 0.26217  0.74534  0.37140  Biso   1.000  C
  C61      1.0000 0.27411  0.74656  0.24583  Biso   1.000  C
  C62      1.0000 0.90712  0.65810  0.67938  Biso   1.000  C
  C63      1.0000 0.85212  0.71636  0.73560  Biso   1.000  C
  C64      1.0000 0.87189  0.74371  0.76173  Biso   1.000  C
  C65      1.0000 0.75888  0.74656  0.76356  Biso   1.000  C
  C66      1.0000 0.26110  0.24466  0.76133  Biso   1.000  C
  C67      1.0000 0.91390  0.66013  0.39072  Biso   1.000  C
  C68      1.0000 0.85065  0.71829  0.33765  Biso   1.000  C
  C69      1.0000 0.75925  0.74595  0.37374  Biso   1.000  C
  C70      1.0000 0.88592  0.74717  0.24461  Biso   1.000  C
  C71      1.0000 0.18936  0.38215  0.67124  Biso   1.000  C
  C72      1.0000 0.25037  0.31942  0.73570  Biso   1.000  C
  C73      1.0000 0.67840  0.88667  0.17313  Biso   1.000  C
  C74      1.0000 0.74165  0.82851  0.22621  Biso   1.000  C
  C75      1.0000 0.83305  0.80085  0.19011  Biso   1.000  C
  C76      1.0000 0.70638  0.79963  0.31924  Biso   1.000  C
  C77      1.0000 0.40294  0.16464  0.89261  Biso   1.000  C
  C78      1.0000 0.34193  0.22738  0.82815  Biso   1.000  C
  O27      1.0000 0.17041  0.46390  0.35096  Biso   1.000  O
  O28      1.0000 0.17175  0.33243  0.48324  Biso   1.000  O
  O29      1.0000 0.86654  0.46492  0.65243  Biso   1.000  O
  O30      1.0000 0.99485  0.33548  0.65650  Biso   1.000  O
  O31      1.0000 0.16994  0.46593  0.65365  Biso   1.000  O
  O32      1.0000 0.42188  0.90720  0.21289  Biso   1.000  O
  O33      1.0000 0.42055  0.90934  0.08061  Biso   1.000  O
  O34      1.0000 0.72575  0.90578  0.91142  Biso   1.000  O
  O35      1.0000 0.59744  0.90873  0.90735  Biso   1.000  O
  O36      1.0000 0.42236  0.21142  0.91020  Biso   1.000  O
  O37      1.0000 0.42189  0.08290  0.21289  Biso   1.000  O
  O38      1.0000 0.42055  0.21436  0.08061  Biso   1.000  O
  O39      1.0000 0.72576  0.08188  0.91142  Biso   1.000  O
  O40      1.0000 0.59744  0.21131  0.90735  Biso   1.000  O
  O41      1.0000 0.42236  0.08086  0.91020  Biso   1.000  O
  O42      1.0000 0.17041  0.63959  0.35096  Biso   1.000  O
  O43      1.0000 0.17175  0.63746  0.48324  Biso   1.000  O
  O44      1.0000 0.86654  0.64102  0.65243  Biso   1.000  O
  O45      1.0000 0.99486  0.63807  0.65650  Biso   1.000  O
  O46      1.0000 0.16994  0.33538  0.65365  Biso   1.000  O
  O47      1.0000 0.05107  0.51901  0.53581  Biso   1.000  O
  O48      1.0000 0.99604  0.63858  0.35168  Biso   1.000  O
  O49      1.0000 0.86795  0.64092  0.47511  Biso   1.000  O
  O50      1.0000 0.54123  0.02779  0.02804  Biso   1.000  O
  O51      1.0000 0.59625  0.90822  0.21218  Biso   1.000  O
  O52      1.0000 0.72435  0.90588  0.08874  Biso   1.000  O
