data_image0
_cell_length_a       18.101
_cell_length_b       18.101
_cell_length_c       18.101
_cell_angle_alpha    60.0036
_cell_angle_beta     60.0036
_cell_angle_gamma    60.0001

_symmetry_space_group_name_H-M    "P 1"
_symmetry_int_tables_number       1

loop_
  _symmetry_equiv_pos_as_xyz
  'x, y, z'

loop_
  _atom_site_label
  _atom_site_occupancy
  _atom_site_fract_x
  _atom_site_fract_y
  _atom_site_fract_z
  _atom_site_thermal_displace_type
  _atom_site_B_iso_or_equiv
  _atom_site_type_symbol
  C1       1.0000 0.11865  0.29385  0.29380  Biso   1.000  C
  C2       1.0000 0.70615  0.88135  0.70620  Biso   1.000  C
  C3       1.0000 0.88135  0.70615  0.70620  Biso   1.000  C
  C4       1.0000 0.29385  0.11865  0.29380  Biso   1.000  C
  C5       1.0000 0.29392  0.29392  0.11841  Biso   1.000  C
  C6       1.0000 0.29367  0.29367  0.29393  Biso   1.000  C
  C7       1.0000 0.70608  0.70608  0.88159  Biso   1.000  C
  C8       1.0000 0.70633  0.70633  0.70607  Biso   1.000  C
  C9       1.0000 0.15480  0.45200  0.93360  Biso   1.000  C
  C10      1.0000 0.93280  0.45040  0.15620  Biso   1.000  C
  C11      1.0000 0.93080  0.15620  0.44950  Biso   1.000  C
  C12      1.0000 0.54800  0.84520  0.06640  Biso   1.000  C
  C13      1.0000 0.54960  0.06720  0.84380  Biso   1.000  C
  C14      1.0000 0.84380  0.06920  0.55050  Biso   1.000  C
  C15      1.0000 0.84520  0.54800  0.06640  Biso   1.000  C
  C16      1.0000 0.06720  0.54960  0.84380  Biso   1.000  C
  C17      1.0000 0.06920  0.84380  0.55050  Biso   1.000  C
  C18      1.0000 0.45200  0.15480  0.93360  Biso   1.000  C
  C19      1.0000 0.45040  0.93280  0.15620  Biso   1.000  C
  C20      1.0000 0.15620  0.93080  0.44950  Biso   1.000  C
  C21      1.0000 0.12160  0.38280  0.11390  Biso   1.000  C
  C22      1.0000 0.05170  0.44790  0.05410  Biso   1.000  C
  C23      1.0000 0.09080  0.47360  0.96020  Biso   1.000  C
  C24      1.0000 0.96010  0.47210  0.09240  Biso   1.000  C
  C25      1.0000 0.11800  0.38220  0.38200  Biso   1.000  C
  C26      1.0000 0.95710  0.09250  0.47340  Biso   1.000  C
  C27      1.0000 0.61720  0.87840  0.88610  Biso   1.000  C
  C28      1.0000 0.55210  0.94830  0.94590  Biso   1.000  C
  C29      1.0000 0.52640  0.90920  0.03980  Biso   1.000  C
  C30      1.0000 0.52790  0.03990  0.90760  Biso   1.000  C
  C31      1.0000 0.61780  0.88200  0.61800  Biso   1.000  C
  C32      1.0000 0.90750  0.04290  0.52660  Biso   1.000  C
  C33      1.0000 0.87840  0.61720  0.88610  Biso   1.000  C
  C34      1.0000 0.94830  0.55210  0.94590  Biso   1.000  C
  C35      1.0000 0.90920  0.52640  0.03980  Biso   1.000  C
  C36      1.0000 0.03990  0.52790  0.90760  Biso   1.000  C
  C37      1.0000 0.88200  0.61780  0.61800  Biso   1.000  C
  C38      1.0000 0.04290  0.90750  0.52660  Biso   1.000  C
  C39      1.0000 0.38280  0.12160  0.11390  Biso   1.000  C
  C40      1.0000 0.44790  0.05170  0.05410  Biso   1.000  C
  C41      1.0000 0.47360  0.09080  0.96020  Biso   1.000  C
  C42      1.0000 0.47210  0.96010  0.09240  Biso   1.000  C
  C43      1.0000 0.38220  0.11800  0.38200  Biso   1.000  C
  C44      1.0000 0.09250  0.95710  0.47340  Biso   1.000  C
  C45      1.0000 0.38310  0.38310  0.11400  Biso   1.000  C
  C46      1.0000 0.11690  0.11690  0.38110  Biso   1.000  C
  C47      1.0000 0.05150  0.05150  0.45050  Biso   1.000  C
  C48      1.0000 0.61690  0.61690  0.88600  Biso   1.000  C
  C49      1.0000 0.88310  0.88310  0.61890  Biso   1.000  C
  C50      1.0000 0.94850  0.94850  0.54950  Biso   1.000  C
  C51      1.0000 0.19980  0.36640  0.06970  Biso   1.000  C
  C52      1.0000 0.06940  0.36720  0.19730  Biso   1.000  C
  C53      1.0000 0.19960  0.36660  0.36560  Biso   1.000  C
  C54      1.0000 0.06800  0.36680  0.36570  Biso   1.000  C
  C55      1.0000 0.06830  0.19910  0.36730  Biso   1.000  C
  C56      1.0000 0.63360  0.80020  0.93030  Biso   1.000  C
  C57      1.0000 0.63280  0.93060  0.80270  Biso   1.000  C
  C58      1.0000 0.63340  0.80040  0.63440  Biso   1.000  C
  C59      1.0000 0.63320  0.93200  0.63430  Biso   1.000  C
  C60      1.0000 0.80090  0.93170  0.63270  Biso   1.000  C
  C61      1.0000 0.80020  0.63360  0.93030  Biso   1.000  C
  C62      1.0000 0.93060  0.63280  0.80270  Biso   1.000  C
  C63      1.0000 0.80040  0.63340  0.63440  Biso   1.000  C
  C64      1.0000 0.93200  0.63320  0.63430  Biso   1.000  C
  C65      1.0000 0.93170  0.80090  0.63270  Biso   1.000  C
  C66      1.0000 0.36640  0.19980  0.06970  Biso   1.000  C
  C67      1.0000 0.36720  0.06940  0.19730  Biso   1.000  C
  C68      1.0000 0.36660  0.19960  0.36560  Biso   1.000  C
  C69      1.0000 0.36680  0.06800  0.36570  Biso   1.000  C
  C70      1.0000 0.19910  0.06830  0.36730  Biso   1.000  C
  C71      1.0000 0.24870  0.24870  0.25120  Biso   1.000  C
  C72      1.0000 0.36630  0.36630  0.06820  Biso   1.000  C
  C73      1.0000 0.36620  0.36620  0.19910  Biso   1.000  C
  C74      1.0000 0.75130  0.75130  0.74880  Biso   1.000  C
  C75      1.0000 0.63370  0.63370  0.93180  Biso   1.000  C
  C76      1.0000 0.63380  0.63380  0.80090  Biso   1.000  C
  O1       1.0000 0.90332  0.75590  0.43954  Biso   1.000  O
  O2       1.0000 0.08007  0.75589  0.26281  Biso   1.000  O
  O3       1.0000 0.90331  0.75589  0.26281  Biso   1.000  O
  O4       1.0000 0.90331  0.93265  0.26281  Biso   1.000  O
  O5       1.0000 0.51162  0.33759  0.66787  Biso   1.000  O
  O6       1.0000 0.33486  0.33760  0.84460  Biso   1.000  O
  O7       1.0000 0.51162  0.16084  0.84460  Biso   1.000  O
  O8       1.0000 0.51162  0.33760  0.84460  Biso   1.000  O
  O9       1.0000 0.06068  0.59151  0.61096  Biso   1.000  O
  O10      1.0000 0.26467  0.59155  0.40689  Biso   1.000  O
  O11      1.0000 0.75226  0.89999  0.09849  Biso   1.000  O
  O12      1.0000 0.75226  0.10394  0.09849  Biso   1.000  O
  O13      1.0000 0.75227  0.10395  0.40689  Biso   1.000  O
  O14      1.0000 0.75223  0.89996  0.61096  Biso   1.000  O
  O15      1.0000 0.06071  0.59154  0.09849  Biso   1.000  O
  O16      1.0000 0.26466  0.59154  0.09849  Biso   1.000  O
  O17      1.0000 0.26466  0.89999  0.09849  Biso   1.000  O
  O18      1.0000 0.06071  0.10394  0.09849  Biso   1.000  O
  O19      1.0000 0.75228  0.59155  0.40689  Biso   1.000  O
  O20      1.0000 0.75223  0.59151  0.61096  Biso   1.000  O
  O21      1.0000 0.35425  0.50198  0.49645  Biso   1.000  O
  O22      1.0000 0.15026  0.50194  0.70053  Biso   1.000  O
  O23      1.0000 0.66268  0.98956  0.00893  Biso   1.000  O
  O24      1.0000 0.66268  0.19351  0.00893  Biso   1.000  O
  O25      1.0000 0.66266  0.50194  0.70053  Biso   1.000  O
  O26      1.0000 0.66270  0.50198  0.49645  Biso   1.000  O
  O27      1.0000 0.35423  0.98956  0.00893  Biso   1.000  O
  O28      1.0000 0.15028  0.19351  0.00893  Biso   1.000  O
  O29      1.0000 0.15028  0.50196  0.00893  Biso   1.000  O
  O30      1.0000 0.35423  0.50196  0.00893  Biso   1.000  O
  O31      1.0000 0.66266  0.98954  0.70053  Biso   1.000  O
  O32      1.0000 0.66270  0.19353  0.49645  Biso   1.000  O
  O33      1.0000 0.12381  0.57357  0.58371  Biso   1.000  O
  O34      1.0000 0.23742  0.57362  0.47000  Biso   1.000  O
  O35      1.0000 0.73432  0.96311  0.08055  Biso   1.000  O
  O36      1.0000 0.73432  0.07668  0.08055  Biso   1.000  O
  O37      1.0000 0.73434  0.07670  0.47000  Biso   1.000  O
  O38      1.0000 0.73430  0.96309  0.58371  Biso   1.000  O
  O39      1.0000 0.12384  0.57360  0.08055  Biso   1.000  O
  O40      1.0000 0.23740  0.57360  0.08055  Biso   1.000  O
  O41      1.0000 0.23740  0.96311  0.08055  Biso   1.000  O
  O42      1.0000 0.12384  0.07668  0.08055  Biso   1.000  O
  O43      1.0000 0.73434  0.57362  0.47000  Biso   1.000  O
  O44      1.0000 0.73429  0.57357  0.58371  Biso   1.000  O
  O45      1.0000 0.29113  0.51992  0.52370  Biso   1.000  O
  O46      1.0000 0.17752  0.51987  0.63741  Biso   1.000  O
  O47      1.0000 0.68061  0.01682  0.02686  Biso   1.000  O
  O48      1.0000 0.68061  0.13038  0.02686  Biso   1.000  O
  O49      1.0000 0.68059  0.51987  0.63741  Biso   1.000  O
  O50      1.0000 0.68064  0.51992  0.52370  Biso   1.000  O
  O51      1.0000 0.29110  0.01682  0.02686  Biso   1.000  O
  O52      1.0000 0.17754  0.13038  0.02686  Biso   1.000  O
  O53      1.0000 0.17754  0.51989  0.02686  Biso   1.000  O
  O54      1.0000 0.29110  0.51989  0.02686  Biso   1.000  O
  O55      1.0000 0.68059  0.01679  0.63741  Biso   1.000  O
  O56      1.0000 0.68064  0.13041  0.52370  Biso   1.000  O
  O57      1.0000 0.08785  0.65975  0.44731  Biso   1.000  O
  O58      1.0000 0.14673  0.60088  0.50617  Biso   1.000  O
  O59      1.0000 0.80715  0.94042  0.16667  Biso   1.000  O
  O60      1.0000 0.74828  0.99929  0.10781  Biso   1.000  O
  O61      1.0000 0.80717  0.94044  0.44731  Biso   1.000  O
  O62      1.0000 0.74830  0.99931  0.50617  Biso   1.000  O
  O63      1.0000 0.08784  0.65974  0.16667  Biso   1.000  O
  O64      1.0000 0.14671  0.60086  0.10781  Biso   1.000  O
  O65      1.0000 0.08784  0.94042  0.16667  Biso   1.000  O
  O66      1.0000 0.14671  0.99929  0.10781  Biso   1.000  O
  O67      1.0000 0.80717  0.65975  0.44731  Biso   1.000  O
  O68      1.0000 0.74830  0.60088  0.50617  Biso   1.000  O
  O69      1.0000 0.32708  0.43374  0.66010  Biso   1.000  O
  O70      1.0000 0.26821  0.49261  0.60124  Biso   1.000  O
  O71      1.0000 0.60778  0.15307  0.94074  Biso   1.000  O
  O72      1.0000 0.66666  0.09420  0.99960  Biso   1.000  O
  O73      1.0000 0.60777  0.43374  0.66010  Biso   1.000  O
  O74      1.0000 0.66664  0.49261  0.60124  Biso   1.000  O
  O75      1.0000 0.32710  0.15307  0.94074  Biso   1.000  O
  O76      1.0000 0.26823  0.09420  0.99960  Biso   1.000  O
  O77      1.0000 0.32710  0.43376  0.94074  Biso   1.000  O
  O78      1.0000 0.26823  0.49263  0.99960  Biso   1.000  O
  O79      1.0000 0.60777  0.15306  0.66010  Biso   1.000  O
  O80      1.0000 0.66664  0.09418  0.60124  Biso   1.000  O
  O81      1.0000 0.94750  0.80009  0.30699  Biso   1.000  O
  O82      1.0000 0.46743  0.29341  0.80042  Biso   1.000  O
  O83      1.0000 0.00394  0.68246  0.48580  Biso   1.000  O
  O84      1.0000 0.12634  0.68245  0.36341  Biso   1.000  O
  O85      1.0000 0.82986  0.85651  0.18938  Biso   1.000  O
  O86      1.0000 0.82986  0.97892  0.18938  Biso   1.000  O
  O87      1.0000 0.82987  0.97893  0.36341  Biso   1.000  O
  O88      1.0000 0.82988  0.85653  0.48580  Biso   1.000  O
  O89      1.0000 0.00393  0.68245  0.18938  Biso   1.000  O
  O90      1.0000 0.12634  0.68245  0.18938  Biso   1.000  O
  O91      1.0000 0.12634  0.85651  0.18938  Biso   1.000  O
  O92      1.0000 0.00393  0.97892  0.18938  Biso   1.000  O
  O93      1.0000 0.82987  0.68245  0.36341  Biso   1.000  O
  O94      1.0000 0.82988  0.68246  0.48580  Biso   1.000  O
  O95      1.0000 0.41099  0.41103  0.62161  Biso   1.000  O
  O96      1.0000 0.28859  0.41104  0.74400  Biso   1.000  O
  O97      1.0000 0.58507  0.11458  0.91804  Biso   1.000  O
  O98      1.0000 0.58507  0.23698  0.91804  Biso   1.000  O
  O99      1.0000 0.58506  0.41104  0.74400  Biso   1.000  O
  O100     1.0000 0.58506  0.41103  0.62161  Biso   1.000  O
  O101     1.0000 0.41101  0.11458  0.91804  Biso   1.000  O
  O102     1.0000 0.28860  0.23698  0.91804  Biso   1.000  O
  O103     1.0000 0.28860  0.41105  0.91804  Biso   1.000  O
  O104     1.0000 0.41101  0.41105  0.91804  Biso   1.000  O
  O105     1.0000 0.58506  0.11457  0.74400  Biso   1.000  O
  O106     1.0000 0.58506  0.23697  0.62161  Biso   1.000  O
