data_image0
_cell_length_a       18.101
_cell_length_b       18.101
_cell_length_c       18.101
_cell_angle_alpha    60.0036
_cell_angle_beta     60.0036
_cell_angle_gamma    60.0001

_symmetry_space_group_name_H-M    "P 1"
_symmetry_int_tables_number       1

loop_
  _symmetry_equiv_pos_as_xyz
  'x, y, z'

loop_
  _atom_site_label
  _atom_site_occupancy
  _atom_site_fract_x
  _atom_site_fract_y
  _atom_site_fract_z
  _atom_site_thermal_displace_type
  _atom_site_B_iso_or_equiv
  _atom_site_type_symbol
  Zn1      1.0000 0.11865  0.29385  0.29380  Biso   1.000  Zn
  Zn2      1.0000 0.70615  0.88135  0.70620  Biso   1.000  Zn
  Zn3      1.0000 0.88135  0.70615  0.70620  Biso   1.000  Zn
  Zn4      1.0000 0.29385  0.11865  0.29380  Biso   1.000  Zn
  Zn5      1.0000 0.29392  0.29392  0.11841  Biso   1.000  Zn
  Zn6      1.0000 0.29367  0.29367  0.29393  Biso   1.000  Zn
  Zn7      1.0000 0.70608  0.70608  0.88159  Biso   1.000  Zn
  Zn8      1.0000 0.70633  0.70633  0.70607  Biso   1.000  Zn
  H1       1.0000 0.15480  0.45200  0.93360  Biso   1.000  H
  H2       1.0000 0.93280  0.45040  0.15620  Biso   1.000  H
  H3       1.0000 0.93080  0.15620  0.44950  Biso   1.000  H
  H4       1.0000 0.54800  0.84520  0.06640  Biso   1.000  H
  H5       1.0000 0.54960  0.06720  0.84380  Biso   1.000  H
  H6       1.0000 0.84380  0.06920  0.55050  Biso   1.000  H
  H7       1.0000 0.84520  0.54800  0.06640  Biso   1.000  H
  H8       1.0000 0.06720  0.54960  0.84380  Biso   1.000  H
  H9       1.0000 0.06920  0.84380  0.55050  Biso   1.000  H
  H10      1.0000 0.45200  0.15480  0.93360  Biso   1.000  H
  H11      1.0000 0.45040  0.93280  0.15620  Biso   1.000  H
  H12      1.0000 0.15620  0.93080  0.44950  Biso   1.000  H
  C1       1.0000 0.12160  0.38280  0.11390  Biso   1.000  C
  C2       1.0000 0.05170  0.44790  0.05410  Biso   1.000  C
  C3       1.0000 0.09080  0.47360  0.96020  Biso   1.000  C
  C4       1.0000 0.96010  0.47210  0.09240  Biso   1.000  C
  C5       1.0000 0.11800  0.38220  0.38200  Biso   1.000  C
  C6       1.0000 0.95710  0.09250  0.47340  Biso   1.000  C
  C7       1.0000 0.61720  0.87840  0.88610  Biso   1.000  C
  C8       1.0000 0.55210  0.94830  0.94590  Biso   1.000  C
  C9       1.0000 0.52640  0.90920  0.03980  Biso   1.000  C
  C10      1.0000 0.52790  0.03990  0.90760  Biso   1.000  C
  C11      1.0000 0.61780  0.88200  0.61800  Biso   1.000  C
  C12      1.0000 0.90750  0.04290  0.52660  Biso   1.000  C
  C13      1.0000 0.87840  0.61720  0.88610  Biso   1.000  C
  C14      1.0000 0.94830  0.55210  0.94590  Biso   1.000  C
  C15      1.0000 0.90920  0.52640  0.03980  Biso   1.000  C
  C16      1.0000 0.03990  0.52790  0.90760  Biso   1.000  C
  C17      1.0000 0.88200  0.61780  0.61800  Biso   1.000  C
  C18      1.0000 0.04290  0.90750  0.52660  Biso   1.000  C
  C19      1.0000 0.38280  0.12160  0.11390  Biso   1.000  C
  C20      1.0000 0.44790  0.05170  0.05410  Biso   1.000  C
  C21      1.0000 0.47360  0.09080  0.96020  Biso   1.000  C
  C22      1.0000 0.47210  0.96010  0.09240  Biso   1.000  C
  C23      1.0000 0.38220  0.11800  0.38200  Biso   1.000  C
  C24      1.0000 0.09250  0.95710  0.47340  Biso   1.000  C
  C25      1.0000 0.38310  0.38310  0.11400  Biso   1.000  C
  C26      1.0000 0.11690  0.11690  0.38110  Biso   1.000  C
  C27      1.0000 0.05150  0.05150  0.45050  Biso   1.000  C
  C28      1.0000 0.61690  0.61690  0.88600  Biso   1.000  C
  C29      1.0000 0.88310  0.88310  0.61890  Biso   1.000  C
  C30      1.0000 0.94850  0.94850  0.54950  Biso   1.000  C
  O1       1.0000 0.19980  0.36640  0.06970  Biso   1.000  O
  O2       1.0000 0.06940  0.36720  0.19730  Biso   1.000  O
  O3       1.0000 0.19960  0.36660  0.36560  Biso   1.000  O
  O4       1.0000 0.06800  0.36680  0.36570  Biso   1.000  O
  O5       1.0000 0.06830  0.19910  0.36730  Biso   1.000  O
  O6       1.0000 0.63360  0.80020  0.93030  Biso   1.000  O
  O7       1.0000 0.63280  0.93060  0.80270  Biso   1.000  O
  O8       1.0000 0.63340  0.80040  0.63440  Biso   1.000  O
  O9       1.0000 0.63320  0.93200  0.63430  Biso   1.000  O
  O10      1.0000 0.80090  0.93170  0.63270  Biso   1.000  O
  O11      1.0000 0.80020  0.63360  0.93030  Biso   1.000  O
  O12      1.0000 0.93060  0.63280  0.80270  Biso   1.000  O
  O13      1.0000 0.80040  0.63340  0.63440  Biso   1.000  O
  O14      1.0000 0.93200  0.63320  0.63430  Biso   1.000  O
  O15      1.0000 0.93170  0.80090  0.63270  Biso   1.000  O
  O16      1.0000 0.36640  0.19980  0.06970  Biso   1.000  O
  O17      1.0000 0.36720  0.06940  0.19730  Biso   1.000  O
  O18      1.0000 0.36660  0.19960  0.36560  Biso   1.000  O
  O19      1.0000 0.36680  0.06800  0.36570  Biso   1.000  O
  O20      1.0000 0.19910  0.06830  0.36730  Biso   1.000  O
  O21      1.0000 0.24870  0.24870  0.25120  Biso   1.000  O
  O22      1.0000 0.36630  0.36630  0.06820  Biso   1.000  O
  O23      1.0000 0.36620  0.36620  0.19910  Biso   1.000  O
  O24      1.0000 0.75130  0.75130  0.74880  Biso   1.000  O
  O25      1.0000 0.63370  0.63370  0.93180  Biso   1.000  O
  O26      1.0000 0.63380  0.63380  0.80090  Biso   1.000  O
  Zn9      1.0000 0.90752  0.75363  0.43942  Biso   1.000  Zn
  Zn10     1.0000 0.08485  0.75362  0.26210  Biso   1.000  Zn
  Zn11     1.0000 0.90751  0.75362  0.26210  Biso   1.000  Zn
  Zn12     1.0000 0.90751  0.93096  0.26210  Biso   1.000  Zn
  Zn13     1.0000 0.52522  0.33256  0.66383  Biso   1.000  Zn
  Zn14     1.0000 0.34789  0.33257  0.84115  Biso   1.000  Zn
  Zn15     1.0000 0.52523  0.15523  0.84115  Biso   1.000  Zn
  Zn16     1.0000 0.52523  0.33257  0.84115  Biso   1.000  Zn
  H13      1.0000 0.06936  0.58864  0.60755  Biso   1.000  H
  H14      1.0000 0.27224  0.58868  0.40458  Biso   1.000  H
  H15      1.0000 0.76194  0.89611  0.09718  Biso   1.000  H
  H16      1.0000 0.76194  0.09895  0.09718  Biso   1.000  H
  H17      1.0000 0.76196  0.09897  0.40458  Biso   1.000  H
  H18      1.0000 0.76191  0.89608  0.60755  Biso   1.000  H
  H19      1.0000 0.06939  0.58866  0.09718  Biso   1.000  H
  H20      1.0000 0.27223  0.58866  0.09718  Biso   1.000  H
  H21      1.0000 0.27223  0.89611  0.09718  Biso   1.000  H
  H22      1.0000 0.06939  0.09895  0.09718  Biso   1.000  H
  H23      1.0000 0.76196  0.58868  0.40458  Biso   1.000  H
  H24      1.0000 0.76191  0.58864  0.60755  Biso   1.000  H
  H25      1.0000 0.36338  0.49755  0.49570  Biso   1.000  H
  H26      1.0000 0.16050  0.49751  0.69867  Biso   1.000  H
  H27      1.0000 0.67080  0.98724  0.00607  Biso   1.000  H
  H28      1.0000 0.67080  0.19008  0.00607  Biso   1.000  H
  H29      1.0000 0.67078  0.49751  0.69867  Biso   1.000  H
  H30      1.0000 0.67083  0.49755  0.49570  Biso   1.000  H
  H31      1.0000 0.36336  0.98724  0.00607  Biso   1.000  H
  H32      1.0000 0.16051  0.19008  0.00607  Biso   1.000  H
  H33      1.0000 0.16051  0.49753  0.00607  Biso   1.000  H
  H34      1.0000 0.36335  0.49753  0.00607  Biso   1.000  H
  H35      1.0000 0.67079  0.98722  0.69867  Biso   1.000  H
  H36      1.0000 0.67083  0.19011  0.49570  Biso   1.000  H
  C31      1.0000 0.13320  0.57028  0.58043  Biso   1.000  C
  C32      1.0000 0.24512  0.57032  0.46841  Biso   1.000  C
  C33      1.0000 0.74358  0.95995  0.07883  Biso   1.000  C
  C34      1.0000 0.74358  0.07183  0.07883  Biso   1.000  C
  C35      1.0000 0.74360  0.07185  0.46841  Biso   1.000  C
  C36      1.0000 0.74355  0.95992  0.58043  Biso   1.000  C
  C37      1.0000 0.13323  0.57030  0.07883  Biso   1.000  C
  C38      1.0000 0.24510  0.57030  0.07883  Biso   1.000  C
  C39      1.0000 0.24510  0.95995  0.07883  Biso   1.000  C
  C40      1.0000 0.13323  0.07183  0.07883  Biso   1.000  C
  C41      1.0000 0.74360  0.57032  0.46841  Biso   1.000  C
  C42      1.0000 0.74355  0.57028  0.58043  Biso   1.000  C
  C43      1.0000 0.29954  0.51591  0.52282  Biso   1.000  C
  C44      1.0000 0.18762  0.51586  0.63484  Biso   1.000  C
  C45      1.0000 0.68916  0.01436  0.02442  Biso   1.000  C
  C46      1.0000 0.68916  0.12624  0.02442  Biso   1.000  C
  C47      1.0000 0.68914  0.51586  0.63484  Biso   1.000  C
  C48      1.0000 0.68919  0.51591  0.52282  Biso   1.000  C
  C49      1.0000 0.29951  0.01436  0.02442  Biso   1.000  C
  C50      1.0000 0.18764  0.12624  0.02442  Biso   1.000  C
  C51      1.0000 0.18764  0.51589  0.02442  Biso   1.000  C
  C52      1.0000 0.29951  0.51589  0.02442  Biso   1.000  C
  C53      1.0000 0.68914  0.01434  0.63484  Biso   1.000  C
  C54      1.0000 0.68919  0.12626  0.52282  Biso   1.000  C
  C55      1.0000 0.09307  0.65675  0.44762  Biso   1.000  C
  C56      1.0000 0.15191  0.59791  0.50645  Biso   1.000  C
  C57      1.0000 0.81062  0.93916  0.16524  Biso   1.000  C
  C58      1.0000 0.75178  0.99800  0.10641  Biso   1.000  C
  C59      1.0000 0.81064  0.93918  0.44762  Biso   1.000  C
  C60      1.0000 0.75180  0.99802  0.50645  Biso   1.000  C
  C61      1.0000 0.09305  0.65673  0.16524  Biso   1.000  C
  C62      1.0000 0.15189  0.59789  0.10641  Biso   1.000  C
  C63      1.0000 0.09305  0.93916  0.16524  Biso   1.000  C
  C64      1.0000 0.15189  0.99800  0.10641  Biso   1.000  C
  C65      1.0000 0.81064  0.65675  0.44762  Biso   1.000  C
  C66      1.0000 0.75180  0.59791  0.50645  Biso   1.000  C
  C67      1.0000 0.33967  0.42944  0.65563  Biso   1.000  C
  C68      1.0000 0.28083  0.48828  0.59680  Biso   1.000  C
  C69      1.0000 0.62212  0.14703  0.93801  Biso   1.000  C
  C70      1.0000 0.68096  0.08819  0.99684  Biso   1.000  C
  C71      1.0000 0.62210  0.42944  0.65563  Biso   1.000  C
  C72      1.0000 0.68094  0.48828  0.59680  Biso   1.000  C
  C73      1.0000 0.33969  0.14703  0.93801  Biso   1.000  C
  C74      1.0000 0.28085  0.08819  0.99684  Biso   1.000  C
  C75      1.0000 0.33969  0.42946  0.93801  Biso   1.000  C
  C76      1.0000 0.28085  0.48830  0.99684  Biso   1.000  C
  C77      1.0000 0.62210  0.14701  0.65563  Biso   1.000  C
  C78      1.0000 0.68094  0.08817  0.59680  Biso   1.000  C
  O27      1.0000 0.95185  0.79795  0.30643  Biso   1.000  O
  O28      1.0000 0.48090  0.28824  0.79682  Biso   1.000  O
  O29      1.0000 0.00809  0.67962  0.48684  Biso   1.000  O
  O30      1.0000 0.13229  0.67962  0.36266  Biso   1.000  O
  O31      1.0000 0.83350  0.85419  0.18811  Biso   1.000  O
  O32      1.0000 0.83350  0.97839  0.18811  Biso   1.000  O
  O33      1.0000 0.83351  0.97840  0.36266  Biso   1.000  O
  O34      1.0000 0.83351  0.85420  0.48684  Biso   1.000  O
  O35      1.0000 0.00808  0.67961  0.18811  Biso   1.000  O
  O36      1.0000 0.13228  0.67961  0.18811  Biso   1.000  O
  O37      1.0000 0.13228  0.85419  0.18811  Biso   1.000  O
  O38      1.0000 0.00808  0.97839  0.18811  Biso   1.000  O
  O39      1.0000 0.83351  0.67962  0.36266  Biso   1.000  O
  O40      1.0000 0.83351  0.67962  0.48684  Biso   1.000  O
  O41      1.0000 0.42465  0.40657  0.61641  Biso   1.000  O
  O42      1.0000 0.30045  0.40657  0.74059  Biso   1.000  O
  O43      1.0000 0.59924  0.10780  0.91514  Biso   1.000  O
  O44      1.0000 0.59924  0.23200  0.91514  Biso   1.000  O
  O45      1.0000 0.59923  0.40657  0.74059  Biso   1.000  O
  O46      1.0000 0.59923  0.40657  0.61641  Biso   1.000  O
  O47      1.0000 0.42466  0.10780  0.91514  Biso   1.000  O
  O48      1.0000 0.30046  0.23200  0.91514  Biso   1.000  O
  O49      1.0000 0.30046  0.40658  0.91514  Biso   1.000  O
  O50      1.0000 0.42466  0.40658  0.91514  Biso   1.000  O
  O51      1.0000 0.59923  0.10779  0.74059  Biso   1.000  O
  O52      1.0000 0.59923  0.23199  0.61641  Biso   1.000  O
