data_image0
_cell_length_a       18.101
_cell_length_b       18.101
_cell_length_c       18.101
_cell_angle_alpha    60.0036
_cell_angle_beta     60.0036
_cell_angle_gamma    60.0001

_symmetry_space_group_name_H-M    "P 1"
_symmetry_int_tables_number       1

loop_
  _symmetry_equiv_pos_as_xyz
  'x, y, z'

loop_
  _atom_site_label
  _atom_site_occupancy
  _atom_site_fract_x
  _atom_site_fract_y
  _atom_site_fract_z
  _atom_site_thermal_displace_type
  _atom_site_B_iso_or_equiv
  _atom_site_type_symbol
  Zn1      1.0000 0.11865  0.29385  0.29380  Biso   1.000  Zn
  Zn2      1.0000 0.70615  0.88135  0.70620  Biso   1.000  Zn
  Zn3      1.0000 0.88135  0.70615  0.70620  Biso   1.000  Zn
  Zn4      1.0000 0.29385  0.11865  0.29380  Biso   1.000  Zn
  Zn5      1.0000 0.29392  0.29392  0.11841  Biso   1.000  Zn
  Zn6      1.0000 0.29367  0.29367  0.29393  Biso   1.000  Zn
  Zn7      1.0000 0.70608  0.70608  0.88159  Biso   1.000  Zn
  Zn8      1.0000 0.70633  0.70633  0.70607  Biso   1.000  Zn
  H1       1.0000 0.15480  0.45200  0.93360  Biso   1.000  H
  H2       1.0000 0.93280  0.45040  0.15620  Biso   1.000  H
  H3       1.0000 0.93080  0.15620  0.44950  Biso   1.000  H
  H4       1.0000 0.54800  0.84520  0.06640  Biso   1.000  H
  H5       1.0000 0.54960  0.06720  0.84380  Biso   1.000  H
  H6       1.0000 0.84380  0.06920  0.55050  Biso   1.000  H
  H7       1.0000 0.84520  0.54800  0.06640  Biso   1.000  H
  H8       1.0000 0.06720  0.54960  0.84380  Biso   1.000  H
  H9       1.0000 0.06920  0.84380  0.55050  Biso   1.000  H
  H10      1.0000 0.45200  0.15480  0.93360  Biso   1.000  H
  H11      1.0000 0.45040  0.93280  0.15620  Biso   1.000  H
  H12      1.0000 0.15620  0.93080  0.44950  Biso   1.000  H
  C1       1.0000 0.12160  0.38280  0.11390  Biso   1.000  C
  C2       1.0000 0.05170  0.44790  0.05410  Biso   1.000  C
  C3       1.0000 0.09080  0.47360  0.96020  Biso   1.000  C
  C4       1.0000 0.96010  0.47210  0.09240  Biso   1.000  C
  C5       1.0000 0.11800  0.38220  0.38200  Biso   1.000  C
  C6       1.0000 0.95710  0.09250  0.47340  Biso   1.000  C
  C7       1.0000 0.61720  0.87840  0.88610  Biso   1.000  C
  C8       1.0000 0.55210  0.94830  0.94590  Biso   1.000  C
  C9       1.0000 0.52640  0.90920  0.03980  Biso   1.000  C
  C10      1.0000 0.52790  0.03990  0.90760  Biso   1.000  C
  C11      1.0000 0.61780  0.88200  0.61800  Biso   1.000  C
  C12      1.0000 0.90750  0.04290  0.52660  Biso   1.000  C
  C13      1.0000 0.87840  0.61720  0.88610  Biso   1.000  C
  C14      1.0000 0.94830  0.55210  0.94590  Biso   1.000  C
  C15      1.0000 0.90920  0.52640  0.03980  Biso   1.000  C
  C16      1.0000 0.03990  0.52790  0.90760  Biso   1.000  C
  C17      1.0000 0.88200  0.61780  0.61800  Biso   1.000  C
  C18      1.0000 0.04290  0.90750  0.52660  Biso   1.000  C
  C19      1.0000 0.38280  0.12160  0.11390  Biso   1.000  C
  C20      1.0000 0.44790  0.05170  0.05410  Biso   1.000  C
  C21      1.0000 0.47360  0.09080  0.96020  Biso   1.000  C
  C22      1.0000 0.47210  0.96010  0.09240  Biso   1.000  C
  C23      1.0000 0.38220  0.11800  0.38200  Biso   1.000  C
  C24      1.0000 0.09250  0.95710  0.47340  Biso   1.000  C
  C25      1.0000 0.38310  0.38310  0.11400  Biso   1.000  C
  C26      1.0000 0.11690  0.11690  0.38110  Biso   1.000  C
  C27      1.0000 0.05150  0.05150  0.45050  Biso   1.000  C
  C28      1.0000 0.61690  0.61690  0.88600  Biso   1.000  C
  C29      1.0000 0.88310  0.88310  0.61890  Biso   1.000  C
  C30      1.0000 0.94850  0.94850  0.54950  Biso   1.000  C
  O1       1.0000 0.19980  0.36640  0.06970  Biso   1.000  O
  O2       1.0000 0.06940  0.36720  0.19730  Biso   1.000  O
  O3       1.0000 0.19960  0.36660  0.36560  Biso   1.000  O
  O4       1.0000 0.06800  0.36680  0.36570  Biso   1.000  O
  O5       1.0000 0.06830  0.19910  0.36730  Biso   1.000  O
  O6       1.0000 0.63360  0.80020  0.93030  Biso   1.000  O
  O7       1.0000 0.63280  0.93060  0.80270  Biso   1.000  O
  O8       1.0000 0.63340  0.80040  0.63440  Biso   1.000  O
  O9       1.0000 0.63320  0.93200  0.63430  Biso   1.000  O
  O10      1.0000 0.80090  0.93170  0.63270  Biso   1.000  O
  O11      1.0000 0.80020  0.63360  0.93030  Biso   1.000  O
  O12      1.0000 0.93060  0.63280  0.80270  Biso   1.000  O
  O13      1.0000 0.80040  0.63340  0.63440  Biso   1.000  O
  O14      1.0000 0.93200  0.63320  0.63430  Biso   1.000  O
  O15      1.0000 0.93170  0.80090  0.63270  Biso   1.000  O
  O16      1.0000 0.36640  0.19980  0.06970  Biso   1.000  O
  O17      1.0000 0.36720  0.06940  0.19730  Biso   1.000  O
  O18      1.0000 0.36660  0.19960  0.36560  Biso   1.000  O
  O19      1.0000 0.36680  0.06800  0.36570  Biso   1.000  O
  O20      1.0000 0.19910  0.06830  0.36730  Biso   1.000  O
  O21      1.0000 0.24870  0.24870  0.25120  Biso   1.000  O
  O22      1.0000 0.36630  0.36630  0.06820  Biso   1.000  O
  O23      1.0000 0.36620  0.36620  0.19910  Biso   1.000  O
  O24      1.0000 0.75130  0.75130  0.74880  Biso   1.000  O
  O25      1.0000 0.63370  0.63370  0.93180  Biso   1.000  O
  O26      1.0000 0.63380  0.63380  0.80090  Biso   1.000  O
  Zn9      1.0000 0.90681  0.75398  0.43950  Biso   1.000  Zn
  Zn10     1.0000 0.08409  0.75397  0.26224  Biso   1.000  Zn
  Zn11     1.0000 0.90680  0.75397  0.26224  Biso   1.000  Zn
  Zn12     1.0000 0.90680  0.93126  0.26224  Biso   1.000  Zn
  Zn13     1.0000 0.52300  0.33338  0.66449  Biso   1.000  Zn
  Zn14     1.0000 0.34572  0.33339  0.84176  Biso   1.000  Zn
  Zn15     1.0000 0.52301  0.15610  0.84176  Biso   1.000  Zn
  Zn16     1.0000 0.52301  0.33339  0.84176  Biso   1.000  Zn
  H13      1.0000 0.06857  0.58877  0.60815  Biso   1.000  H
  H14      1.0000 0.27101  0.58881  0.40563  Biso   1.000  H
  H15      1.0000 0.76002  0.89737  0.09711  Biso   1.000  H
  H16      1.0000 0.76002  0.09977  0.09711  Biso   1.000  H
  H17      1.0000 0.76004  0.09978  0.40563  Biso   1.000  H
  H18      1.0000 0.76000  0.89734  0.60815  Biso   1.000  H
  H19      1.0000 0.06860  0.58880  0.09711  Biso   1.000  H
  H20      1.0000 0.27099  0.58880  0.09711  Biso   1.000  H
  H21      1.0000 0.27099  0.89737  0.09711  Biso   1.000  H
  H22      1.0000 0.06860  0.09977  0.09711  Biso   1.000  H
  H23      1.0000 0.76004  0.58881  0.40563  Biso   1.000  H
  H24      1.0000 0.76000  0.58877  0.60815  Biso   1.000  H
  H25      1.0000 0.36124  0.49859  0.49584  Biso   1.000  H
  H26      1.0000 0.15880  0.49855  0.69837  Biso   1.000  H
  H27      1.0000 0.66979  0.98759  0.00689  Biso   1.000  H
  H28      1.0000 0.66979  0.18999  0.00689  Biso   1.000  H
  H29      1.0000 0.66977  0.49855  0.69837  Biso   1.000  H
  H30      1.0000 0.66981  0.49859  0.49584  Biso   1.000  H
  H31      1.0000 0.36122  0.98759  0.00689  Biso   1.000  H
  H32      1.0000 0.15882  0.18999  0.00689  Biso   1.000  H
  H33      1.0000 0.15882  0.49856  0.00689  Biso   1.000  H
  H34      1.0000 0.36121  0.49856  0.00689  Biso   1.000  H
  H35      1.0000 0.66977  0.98758  0.69837  Biso   1.000  H
  H36      1.0000 0.66981  0.19002  0.49584  Biso   1.000  H
  C31      1.0000 0.13171  0.57072  0.58111  Biso   1.000  C
  C32      1.0000 0.24396  0.57077  0.46876  Biso   1.000  C
  C33      1.0000 0.74198  0.96051  0.07906  Biso   1.000  C
  C34      1.0000 0.74197  0.07272  0.07906  Biso   1.000  C
  C35      1.0000 0.74200  0.07274  0.46876  Biso   1.000  C
  C36      1.0000 0.74195  0.96048  0.58111  Biso   1.000  C
  C37      1.0000 0.13174  0.57075  0.07906  Biso   1.000  C
  C38      1.0000 0.24394  0.57075  0.07906  Biso   1.000  C
  C39      1.0000 0.24394  0.96051  0.07906  Biso   1.000  C
  C40      1.0000 0.13173  0.07272  0.07906  Biso   1.000  C
  C41      1.0000 0.74200  0.57077  0.46876  Biso   1.000  C
  C42      1.0000 0.74195  0.57072  0.58111  Biso   1.000  C
  C43      1.0000 0.29810  0.51664  0.52289  Biso   1.000  C
  C44      1.0000 0.18585  0.51659  0.63524  Biso   1.000  C
  C45      1.0000 0.68784  0.01464  0.02493  Biso   1.000  C
  C46      1.0000 0.68783  0.12685  0.02493  Biso   1.000  C
  C47      1.0000 0.68781  0.51659  0.63524  Biso   1.000  C
  C48      1.0000 0.68786  0.51664  0.52289  Biso   1.000  C
  C49      1.0000 0.29808  0.01464  0.02493  Biso   1.000  C
  C50      1.0000 0.18587  0.12685  0.02493  Biso   1.000  C
  C51      1.0000 0.18587  0.51661  0.02493  Biso   1.000  C
  C52      1.0000 0.29808  0.51661  0.02493  Biso   1.000  C
  C53      1.0000 0.68781  0.01462  0.63524  Biso   1.000  C
  C54      1.0000 0.68786  0.12688  0.52289  Biso   1.000  C
  C55      1.0000 0.09226  0.65717  0.44766  Biso   1.000  C
  C56      1.0000 0.15099  0.59844  0.50638  Biso   1.000  C
  C57      1.0000 0.80999  0.93941  0.16545  Biso   1.000  C
  C58      1.0000 0.75125  0.99814  0.10673  Biso   1.000  C
  C59      1.0000 0.81000  0.93943  0.44766  Biso   1.000  C
  C60      1.0000 0.75128  0.99816  0.50638  Biso   1.000  C
  C61      1.0000 0.09225  0.65716  0.16545  Biso   1.000  C
  C62      1.0000 0.15097  0.59842  0.10673  Biso   1.000  C
  C63      1.0000 0.09225  0.93941  0.16545  Biso   1.000  C
  C64      1.0000 0.15097  0.99814  0.10673  Biso   1.000  C
  C65      1.0000 0.81000  0.65717  0.44766  Biso   1.000  C
  C66      1.0000 0.75128  0.59844  0.50638  Biso   1.000  C
  C67      1.0000 0.33755  0.43019  0.65634  Biso   1.000  C
  C68      1.0000 0.27882  0.48892  0.59762  Biso   1.000  C
  C69      1.0000 0.61982  0.14795  0.93855  Biso   1.000  C
  C70      1.0000 0.67856  0.08922  0.99727  Biso   1.000  C
  C71      1.0000 0.61981  0.43019  0.65634  Biso   1.000  C
  C72      1.0000 0.67854  0.48892  0.59762  Biso   1.000  C
  C73      1.0000 0.33757  0.14795  0.93855  Biso   1.000  C
  C74      1.0000 0.27884  0.08922  0.99727  Biso   1.000  C
  C75      1.0000 0.33757  0.43020  0.93855  Biso   1.000  C
  C76      1.0000 0.27884  0.48894  0.99727  Biso   1.000  C
  C77      1.0000 0.61981  0.14793  0.65634  Biso   1.000  C
  C78      1.0000 0.67854  0.08920  0.59762  Biso   1.000  C
  O27      1.0000 0.95112  0.79829  0.30656  Biso   1.000  O
  O28      1.0000 0.47869  0.28907  0.79744  Biso   1.000  O
  O29      1.0000 0.00736  0.67999  0.48691  Biso   1.000  O
  O30      1.0000 0.13152  0.67999  0.36277  Biso   1.000  O
  O31      1.0000 0.83281  0.85451  0.18827  Biso   1.000  O
  O32      1.0000 0.83281  0.97867  0.18827  Biso   1.000  O
  O33      1.0000 0.83282  0.97868  0.36277  Biso   1.000  O
  O34      1.0000 0.83283  0.85453  0.48691  Biso   1.000  O
  O35      1.0000 0.00734  0.67998  0.18827  Biso   1.000  O
  O36      1.0000 0.13151  0.67998  0.18827  Biso   1.000  O
  O37      1.0000 0.13151  0.85451  0.18827  Biso   1.000  O
  O38      1.0000 0.00734  0.97867  0.18827  Biso   1.000  O
  O39      1.0000 0.83282  0.67999  0.36277  Biso   1.000  O
  O40      1.0000 0.83283  0.67999  0.48691  Biso   1.000  O
  O41      1.0000 0.42245  0.40737  0.61708  Biso   1.000  O
  O42      1.0000 0.29830  0.40737  0.74123  Biso   1.000  O
  O43      1.0000 0.59700  0.10869  0.91573  Biso   1.000  O
  O44      1.0000 0.59700  0.23285  0.91573  Biso   1.000  O
  O45      1.0000 0.59699  0.40737  0.74123  Biso   1.000  O
  O46      1.0000 0.59698  0.40737  0.61708  Biso   1.000  O
  O47      1.0000 0.42247  0.10869  0.91573  Biso   1.000  O
  O48      1.0000 0.29831  0.23285  0.91573  Biso   1.000  O
  O49      1.0000 0.29831  0.40738  0.91573  Biso   1.000  O
  O50      1.0000 0.42247  0.40738  0.91573  Biso   1.000  O
  O51      1.0000 0.59699  0.10868  0.74123  Biso   1.000  O
  O52      1.0000 0.59698  0.23283  0.61708  Biso   1.000  O
