data_image0
_cell_length_a       18.2519
_cell_length_b       18.2519
_cell_length_c       18.252
_cell_angle_alpha    60.0037
_cell_angle_beta     60.0037
_cell_angle_gamma    60.0005

_symmetry_space_group_name_H-M    "P 1"
_symmetry_int_tables_number       1

loop_
  _symmetry_equiv_pos_as_xyz
  'x, y, z'

loop_
  _atom_site_label
  _atom_site_occupancy
  _atom_site_fract_x
  _atom_site_fract_y
  _atom_site_fract_z
  _atom_site_thermal_displace_type
  _atom_site_B_iso_or_equiv
  _atom_site_type_symbol
  Zn1      1.0000 0.88127  0.70639  0.20624  Biso   1.000  Zn
  Zn2      1.0000 0.29361  0.11873  0.79376  Biso   1.000  Zn
  Zn3      1.0000 0.11873  0.29361  0.79376  Biso   1.000  Zn
  Zn4      1.0000 0.70639  0.88127  0.20624  Biso   1.000  Zn
  Zn5      1.0000 0.70606  0.70606  0.38133  Biso   1.000  Zn
  Zn6      1.0000 0.70624  0.70624  0.20614  Biso   1.000  Zn
  Zn7      1.0000 0.29394  0.29394  0.61867  Biso   1.000  Zn
  Zn8      1.0000 0.29376  0.29376  0.79386  Biso   1.000  Zn
  H1       1.0000 0.54630  0.06090  0.34980  Biso   1.000  H
  H2       1.0000 0.54310  0.84610  0.56150  Biso   1.000  H
  H3       1.0000 0.54720  0.05980  0.04610  Biso   1.000  H
  H4       1.0000 0.54320  0.84860  0.04380  Biso   1.000  H
  H5       1.0000 0.06260  0.84660  0.04860  Biso   1.000  H
  H6       1.0000 0.93910  0.45370  0.65020  Biso   1.000  H
  H7       1.0000 0.15390  0.45690  0.43850  Biso   1.000  H
  H8       1.0000 0.94020  0.45280  0.95390  Biso   1.000  H
  H9       1.0000 0.15140  0.45680  0.95620  Biso   1.000  H
  H10      1.0000 0.15340  0.93740  0.95140  Biso   1.000  H
  H11      1.0000 0.45370  0.93910  0.65020  Biso   1.000  H
  H12      1.0000 0.45690  0.15390  0.43850  Biso   1.000  H
  H13      1.0000 0.45280  0.94020  0.95390  Biso   1.000  H
  H14      1.0000 0.45680  0.15140  0.95620  Biso   1.000  H
  H15      1.0000 0.93740  0.15340  0.95140  Biso   1.000  H
  H16      1.0000 0.06090  0.54630  0.34980  Biso   1.000  H
  H17      1.0000 0.84610  0.54310  0.56150  Biso   1.000  H
  H18      1.0000 0.05980  0.54720  0.04610  Biso   1.000  H
  H19      1.0000 0.84860  0.54320  0.04380  Biso   1.000  H
  H20      1.0000 0.84660  0.06260  0.04860  Biso   1.000  H
  H21      1.0000 0.54440  0.54440  0.34770  Biso   1.000  H
  H22      1.0000 0.54330  0.54330  0.56380  Biso   1.000  H
  H23      1.0000 0.45560  0.45560  0.65230  Biso   1.000  H
  H24      1.0000 0.45670  0.45670  0.43620  Biso   1.000  H
  C1       1.0000 0.61220  0.88980  0.38620  Biso   1.000  C
  C2       1.0000 0.55250  0.94790  0.44740  Biso   1.000  C
  C3       1.0000 0.52760  0.03520  0.41200  Biso   1.000  C
  C4       1.0000 0.52640  0.90820  0.53550  Biso   1.000  C
  C5       1.0000 0.61340  0.88660  0.10910  Biso   1.000  C
  C6       1.0000 0.55610  0.94510  0.05380  Biso   1.000  C
  C7       1.0000 0.52920  0.03360  0.02810  Biso   1.000  C
  C8       1.0000 0.52640  0.91060  0.02630  Biso   1.000  C
  C9       1.0000 0.03650  0.90870  0.02850  Biso   1.000  C
  C10      1.0000 0.11020  0.38780  0.61380  Biso   1.000  C
  C11      1.0000 0.05210  0.44750  0.55260  Biso   1.000  C
  C12      1.0000 0.96480  0.47240  0.58800  Biso   1.000  C
  C13      1.0000 0.09180  0.47360  0.46450  Biso   1.000  C
  C14      1.0000 0.11340  0.38660  0.89090  Biso   1.000  C
  C15      1.0000 0.05490  0.44390  0.94620  Biso   1.000  C
  C16      1.0000 0.96640  0.47080  0.97190  Biso   1.000  C
  C17      1.0000 0.08940  0.47360  0.97370  Biso   1.000  C
  C18      1.0000 0.09130  0.96350  0.97150  Biso   1.000  C
  C19      1.0000 0.38780  0.11020  0.61380  Biso   1.000  C
  C20      1.0000 0.44750  0.05210  0.55260  Biso   1.000  C
  C21      1.0000 0.47240  0.96480  0.58800  Biso   1.000  C
  C22      1.0000 0.47360  0.09180  0.46450  Biso   1.000  C
  C23      1.0000 0.38660  0.11340  0.89090  Biso   1.000  C
  C24      1.0000 0.44390  0.05490  0.94620  Biso   1.000  C
  C25      1.0000 0.47080  0.96640  0.97190  Biso   1.000  C
  C26      1.0000 0.47360  0.08940  0.97370  Biso   1.000  C
  C27      1.0000 0.96350  0.09130  0.97150  Biso   1.000  C
  C28      1.0000 0.88980  0.61220  0.38620  Biso   1.000  C
  C29      1.0000 0.94790  0.55250  0.44740  Biso   1.000  C
  C30      1.0000 0.03520  0.52760  0.41200  Biso   1.000  C
  C31      1.0000 0.90820  0.52640  0.53550  Biso   1.000  C
  C32      1.0000 0.88660  0.61340  0.10910  Biso   1.000  C
  C33      1.0000 0.94510  0.55610  0.05380  Biso   1.000  C
  C34      1.0000 0.03360  0.52920  0.02810  Biso   1.000  C
  C35      1.0000 0.91060  0.52640  0.02630  Biso   1.000  C
  C36      1.0000 0.90870  0.03650  0.02850  Biso   1.000  C
  C37      1.0000 0.61140  0.61140  0.39300  Biso   1.000  C
  C38      1.0000 0.55420  0.55420  0.44520  Biso   1.000  C
  C39      1.0000 0.52700  0.52700  0.40970  Biso   1.000  C
  C40      1.0000 0.52580  0.52580  0.53670  Biso   1.000  C
  C41      1.0000 0.88480  0.88480  0.11710  Biso   1.000  C
  C42      1.0000 0.94650  0.94650  0.05370  Biso   1.000  C
  C43      1.0000 0.38860  0.38860  0.60700  Biso   1.000  C
  C44      1.0000 0.44580  0.44580  0.55480  Biso   1.000  C
  C45      1.0000 0.47300  0.47300  0.59030  Biso   1.000  C
  C46      1.0000 0.47420  0.47420  0.46330  Biso   1.000  C
  C47      1.0000 0.11520  0.11520  0.88290  Biso   1.000  C
  C48      1.0000 0.05350  0.05350  0.94630  Biso   1.000  C
  O1       1.0000 0.63160  0.80440  0.43210  Biso   1.000  O
  O2       1.0000 0.63370  0.93370  0.30200  Biso   1.000  O
  O3       1.0000 0.63020  0.80340  0.13560  Biso   1.000  O
  O4       1.0000 0.63310  0.93070  0.13160  Biso   1.000  O
  O5       1.0000 0.93080  0.80240  0.13440  Biso   1.000  O
  O6       1.0000 0.19560  0.36840  0.56790  Biso   1.000  O
  O7       1.0000 0.06630  0.36630  0.69800  Biso   1.000  O
  O8       1.0000 0.19660  0.36980  0.86440  Biso   1.000  O
  O9       1.0000 0.06930  0.36690  0.86840  Biso   1.000  O
  O10      1.0000 0.19760  0.06920  0.86560  Biso   1.000  O
  O11      1.0000 0.36840  0.19560  0.56790  Biso   1.000  O
  O12      1.0000 0.36630  0.06630  0.69800  Biso   1.000  O
  O13      1.0000 0.36980  0.19660  0.86440  Biso   1.000  O
  O14      1.0000 0.36690  0.06930  0.86840  Biso   1.000  O
  O15      1.0000 0.06920  0.19760  0.86560  Biso   1.000  O
  O16      1.0000 0.80440  0.63160  0.43210  Biso   1.000  O
  O17      1.0000 0.93370  0.63370  0.30200  Biso   1.000  O
  O18      1.0000 0.80340  0.63020  0.13560  Biso   1.000  O
  O19      1.0000 0.93070  0.63310  0.13160  Biso   1.000  O
  O20      1.0000 0.80240  0.93080  0.13440  Biso   1.000  O
  O21      1.0000 0.75020  0.75020  0.25030  Biso   1.000  O
  O22      1.0000 0.63260  0.63260  0.43140  Biso   1.000  O
  O23      1.0000 0.63030  0.63030  0.31000  Biso   1.000  O
  O24      1.0000 0.24980  0.24980  0.74970  Biso   1.000  O
  O25      1.0000 0.36740  0.36740  0.56860  Biso   1.000  O
  O26      1.0000 0.36970  0.36970  0.69000  Biso   1.000  O
  Zn9      1.0000 0.40159  0.26519  0.43230  Biso   1.000  Zn
  Zn10     1.0000 0.57544  0.26518  0.25848  Biso   1.000  Zn
  Zn11     1.0000 0.40158  0.26518  0.25848  Biso   1.000  Zn
  Zn12     1.0000 0.40159  0.43903  0.25848  Biso   1.000  Zn
  Zn13     1.0000 0.98342  0.85377  0.67335  Biso   1.000  Zn
  Zn14     1.0000 0.80957  0.85378  0.84717  Biso   1.000  Zn
  Zn15     1.0000 0.98342  0.67994  0.84717  Biso   1.000  Zn
  Zn16     1.0000 0.98343  0.85378  0.84717  Biso   1.000  Zn
  H25      1.0000 0.53991  0.10351  0.61738  Biso   1.000  H
  H26      1.0000 0.75700  0.10355  0.40018  Biso   1.000  H
  H27      1.0000 0.23656  0.40690  0.09686  Biso   1.000  H
  H28      1.0000 0.23655  0.62397  0.09686  Biso   1.000  H
  H29      1.0000 0.23657  0.62399  0.40018  Biso   1.000  H
  H30      1.0000 0.23654  0.40688  0.61738  Biso   1.000  H
  H31      1.0000 0.53993  0.10354  0.09686  Biso   1.000  H
  H32      1.0000 0.75698  0.10354  0.09686  Biso   1.000  H
  H33      1.0000 0.75698  0.40690  0.09686  Biso   1.000  H
  H34      1.0000 0.53993  0.62397  0.09686  Biso   1.000  H
  H35      1.0000 0.23658  0.10355  0.40018  Biso   1.000  H
  H36      1.0000 0.23653  0.10351  0.61738  Biso   1.000  H
  H37      1.0000 0.84511  0.01546  0.48827  Biso   1.000  H
  H38      1.0000 0.62801  0.01542  0.70546  Biso   1.000  H
  H39      1.0000 0.14846  0.49500  0.00878  Biso   1.000  H
  H40      1.0000 0.14845  0.71206  0.00878  Biso   1.000  H
  H41      1.0000 0.14843  0.01542  0.70546  Biso   1.000  H
  H42      1.0000 0.14848  0.01546  0.48827  Biso   1.000  H
  H43      1.0000 0.84508  0.49500  0.00878  Biso   1.000  H
  H44      1.0000 0.62803  0.71206  0.00878  Biso   1.000  H
  H45      1.0000 0.62803  0.01543  0.00878  Biso   1.000  H
  H46      1.0000 0.84508  0.01543  0.00878  Biso   1.000  H
  H47      1.0000 0.14844  0.49498  0.70546  Biso   1.000  H
  H48      1.0000 0.14848  0.71209  0.48827  Biso   1.000  H
  C49      1.0000 0.60199  0.08587  0.59057  Biso   1.000  C
  C50      1.0000 0.73019  0.08591  0.46226  Biso   1.000  C
  C51      1.0000 0.21892  0.46899  0.07923  Biso   1.000  C
  C52      1.0000 0.21891  0.59716  0.07923  Biso   1.000  C
  C53      1.0000 0.21894  0.59718  0.46226  Biso   1.000  C
  C54      1.0000 0.21889  0.46896  0.59057  Biso   1.000  C
  C55      1.0000 0.60202  0.08589  0.07923  Biso   1.000  C
  C56      1.0000 0.73017  0.08589  0.07923  Biso   1.000  C
  C57      1.0000 0.73017  0.46899  0.07923  Biso   1.000  C
  C58      1.0000 0.60202  0.59716  0.07923  Biso   1.000  C
  C59      1.0000 0.21894  0.08591  0.46226  Biso   1.000  C
  C60      1.0000 0.21889  0.08587  0.59057  Biso   1.000  C
  C61      1.0000 0.78302  0.03310  0.51507  Biso   1.000  C
  C62      1.0000 0.65482  0.03305  0.64338  Biso   1.000  C
  C63      1.0000 0.16610  0.52181  0.02642  Biso   1.000  C
  C64      1.0000 0.16609  0.64998  0.02642  Biso   1.000  C
  C65      1.0000 0.16607  0.03305  0.64338  Biso   1.000  C
  C66      1.0000 0.16612  0.03310  0.51507  Biso   1.000  C
  C67      1.0000 0.78299  0.52181  0.02642  Biso   1.000  C
  C68      1.0000 0.65484  0.64998  0.02642  Biso   1.000  C
  C69      1.0000 0.65484  0.03307  0.02642  Biso   1.000  C
  C70      1.0000 0.78299  0.03307  0.02642  Biso   1.000  C
  C71      1.0000 0.16608  0.52179  0.64338  Biso   1.000  C
  C72      1.0000 0.16612  0.65000  0.51507  Biso   1.000  C
  C73      1.0000 0.58309  0.17062  0.43994  Biso   1.000  C
  C74      1.0000 0.64100  0.11272  0.49783  Biso   1.000  C
  C75      1.0000 0.30701  0.44667  0.16392  Biso   1.000  C
  C76      1.0000 0.24910  0.50457  0.10603  Biso   1.000  C
  C77      1.0000 0.30703  0.44668  0.43994  Biso   1.000  C
  C78      1.0000 0.24913  0.50459  0.49783  Biso   1.000  C
  C79      1.0000 0.58307  0.17061  0.16392  Biso   1.000  C
  C80      1.0000 0.64097  0.11270  0.10603  Biso   1.000  C
  C81      1.0000 0.58308  0.44667  0.16392  Biso   1.000  C
  C82      1.0000 0.64098  0.50457  0.10603  Biso   1.000  C
  C83      1.0000 0.30702  0.17062  0.43994  Biso   1.000  C
  C84      1.0000 0.24912  0.11272  0.49783  Biso   1.000  C
  C85      1.0000 0.80192  0.94834  0.66570  Biso   1.000  C
  C86      1.0000 0.74401  0.00624  0.60781  Biso   1.000  C
  C87      1.0000 0.07800  0.67230  0.94172  Biso   1.000  C
  C88      1.0000 0.13591  0.61440  0.99961  Biso   1.000  C
  C89      1.0000 0.07799  0.94834  0.66570  Biso   1.000  C
  C90      1.0000 0.13589  0.00624  0.60781  Biso   1.000  C
  C91      1.0000 0.80193  0.67230  0.94172  Biso   1.000  C
  C92      1.0000 0.74403  0.61440  0.99961  Biso   1.000  C
  C93      1.0000 0.80194  0.94836  0.94172  Biso   1.000  C
  C94      1.0000 0.74404  0.00626  0.99961  Biso   1.000  C
  C95      1.0000 0.07798  0.67228  0.66570  Biso   1.000  C
  C96      1.0000 0.13588  0.61438  0.60781  Biso   1.000  C
  O27      1.0000 0.44505  0.30865  0.30193  Biso   1.000  O
  O28      1.0000 0.93996  0.81032  0.80371  Biso   1.000  O
  O29      1.0000 0.50056  0.19296  0.47779  Biso   1.000  O
  O30      1.0000 0.62095  0.19295  0.35742  Biso   1.000  O
  O31      1.0000 0.32935  0.36414  0.18625  Biso   1.000  O
  O32      1.0000 0.32935  0.48453  0.18625  Biso   1.000  O
  O33      1.0000 0.32936  0.48454  0.35742  Biso   1.000  O
  O34      1.0000 0.32936  0.36416  0.47779  Biso   1.000  O
  O35      1.0000 0.50054  0.19295  0.18625  Biso   1.000  O
  O36      1.0000 0.62094  0.19295  0.18625  Biso   1.000  O
  O37      1.0000 0.62094  0.36414  0.18625  Biso   1.000  O
  O38      1.0000 0.50055  0.48453  0.18625  Biso   1.000  O
  O39      1.0000 0.32935  0.19295  0.35742  Biso   1.000  O
  O40      1.0000 0.32936  0.19296  0.47779  Biso   1.000  O
  O41      1.0000 0.88445  0.92601  0.62785  Biso   1.000  O
  O42      1.0000 0.76406  0.92601  0.74822  Biso   1.000  O
  O43      1.0000 0.05566  0.63443  0.91939  Biso   1.000  O
  O44      1.0000 0.05567  0.75482  0.91939  Biso   1.000  O
  O45      1.0000 0.05566  0.92601  0.74822  Biso   1.000  O
  O46      1.0000 0.05565  0.92601  0.62785  Biso   1.000  O
  O47      1.0000 0.88446  0.63443  0.91939  Biso   1.000  O
  O48      1.0000 0.76407  0.75482  0.91939  Biso   1.000  O
  O49      1.0000 0.76407  0.92602  0.91939  Biso   1.000  O
  O50      1.0000 0.88447  0.92602  0.91939  Biso   1.000  O
  O51      1.0000 0.05565  0.63443  0.74822  Biso   1.000  O
  O52      1.0000 0.05565  0.75481  0.62785  Biso   1.000  O
