data_image0
_cell_length_a       18.2519
_cell_length_b       18.2519
_cell_length_c       18.252
_cell_angle_alpha    60.0037
_cell_angle_beta     60.0037
_cell_angle_gamma    60.0005

_symmetry_space_group_name_H-M    "P 1"
_symmetry_int_tables_number       1

loop_
  _symmetry_equiv_pos_as_xyz
  'x, y, z'

loop_
  _atom_site_label
  _atom_site_occupancy
  _atom_site_fract_x
  _atom_site_fract_y
  _atom_site_fract_z
  _atom_site_thermal_displace_type
  _atom_site_B_iso_or_equiv
  _atom_site_type_symbol
  Zn1      1.0000 0.88127  0.70639  0.20624  Biso   1.000  Zn
  Zn2      1.0000 0.29361  0.11873  0.79376  Biso   1.000  Zn
  Zn3      1.0000 0.11873  0.29361  0.79376  Biso   1.000  Zn
  Zn4      1.0000 0.70639  0.88127  0.20624  Biso   1.000  Zn
  Zn5      1.0000 0.70606  0.70606  0.38133  Biso   1.000  Zn
  Zn6      1.0000 0.70624  0.70624  0.20614  Biso   1.000  Zn
  Zn7      1.0000 0.29394  0.29394  0.61867  Biso   1.000  Zn
  Zn8      1.0000 0.29376  0.29376  0.79386  Biso   1.000  Zn
  H1       1.0000 0.54630  0.06090  0.34980  Biso   1.000  H
  H2       1.0000 0.54310  0.84610  0.56150  Biso   1.000  H
  H3       1.0000 0.54720  0.05980  0.04610  Biso   1.000  H
  H4       1.0000 0.54320  0.84860  0.04380  Biso   1.000  H
  H5       1.0000 0.06260  0.84660  0.04860  Biso   1.000  H
  H6       1.0000 0.93910  0.45370  0.65020  Biso   1.000  H
  H7       1.0000 0.15390  0.45690  0.43850  Biso   1.000  H
  H8       1.0000 0.94020  0.45280  0.95390  Biso   1.000  H
  H9       1.0000 0.15140  0.45680  0.95620  Biso   1.000  H
  H10      1.0000 0.15340  0.93740  0.95140  Biso   1.000  H
  H11      1.0000 0.45370  0.93910  0.65020  Biso   1.000  H
  H12      1.0000 0.45690  0.15390  0.43850  Biso   1.000  H
  H13      1.0000 0.45280  0.94020  0.95390  Biso   1.000  H
  H14      1.0000 0.45680  0.15140  0.95620  Biso   1.000  H
  H15      1.0000 0.93740  0.15340  0.95140  Biso   1.000  H
  H16      1.0000 0.06090  0.54630  0.34980  Biso   1.000  H
  H17      1.0000 0.84610  0.54310  0.56150  Biso   1.000  H
  H18      1.0000 0.05980  0.54720  0.04610  Biso   1.000  H
  H19      1.0000 0.84860  0.54320  0.04380  Biso   1.000  H
  H20      1.0000 0.84660  0.06260  0.04860  Biso   1.000  H
  H21      1.0000 0.54440  0.54440  0.34770  Biso   1.000  H
  H22      1.0000 0.54330  0.54330  0.56380  Biso   1.000  H
  H23      1.0000 0.45560  0.45560  0.65230  Biso   1.000  H
  H24      1.0000 0.45670  0.45670  0.43620  Biso   1.000  H
  C1       1.0000 0.61220  0.88980  0.38620  Biso   1.000  C
  C2       1.0000 0.55250  0.94790  0.44740  Biso   1.000  C
  C3       1.0000 0.52760  0.03520  0.41200  Biso   1.000  C
  C4       1.0000 0.52640  0.90820  0.53550  Biso   1.000  C
  C5       1.0000 0.61340  0.88660  0.10910  Biso   1.000  C
  C6       1.0000 0.55610  0.94510  0.05380  Biso   1.000  C
  C7       1.0000 0.52920  0.03360  0.02810  Biso   1.000  C
  C8       1.0000 0.52640  0.91060  0.02630  Biso   1.000  C
  C9       1.0000 0.03650  0.90870  0.02850  Biso   1.000  C
  C10      1.0000 0.11020  0.38780  0.61380  Biso   1.000  C
  C11      1.0000 0.05210  0.44750  0.55260  Biso   1.000  C
  C12      1.0000 0.96480  0.47240  0.58800  Biso   1.000  C
  C13      1.0000 0.09180  0.47360  0.46450  Biso   1.000  C
  C14      1.0000 0.11340  0.38660  0.89090  Biso   1.000  C
  C15      1.0000 0.05490  0.44390  0.94620  Biso   1.000  C
  C16      1.0000 0.96640  0.47080  0.97190  Biso   1.000  C
  C17      1.0000 0.08940  0.47360  0.97370  Biso   1.000  C
  C18      1.0000 0.09130  0.96350  0.97150  Biso   1.000  C
  C19      1.0000 0.38780  0.11020  0.61380  Biso   1.000  C
  C20      1.0000 0.44750  0.05210  0.55260  Biso   1.000  C
  C21      1.0000 0.47240  0.96480  0.58800  Biso   1.000  C
  C22      1.0000 0.47360  0.09180  0.46450  Biso   1.000  C
  C23      1.0000 0.38660  0.11340  0.89090  Biso   1.000  C
  C24      1.0000 0.44390  0.05490  0.94620  Biso   1.000  C
  C25      1.0000 0.47080  0.96640  0.97190  Biso   1.000  C
  C26      1.0000 0.47360  0.08940  0.97370  Biso   1.000  C
  C27      1.0000 0.96350  0.09130  0.97150  Biso   1.000  C
  C28      1.0000 0.88980  0.61220  0.38620  Biso   1.000  C
  C29      1.0000 0.94790  0.55250  0.44740  Biso   1.000  C
  C30      1.0000 0.03520  0.52760  0.41200  Biso   1.000  C
  C31      1.0000 0.90820  0.52640  0.53550  Biso   1.000  C
  C32      1.0000 0.88660  0.61340  0.10910  Biso   1.000  C
  C33      1.0000 0.94510  0.55610  0.05380  Biso   1.000  C
  C34      1.0000 0.03360  0.52920  0.02810  Biso   1.000  C
  C35      1.0000 0.91060  0.52640  0.02630  Biso   1.000  C
  C36      1.0000 0.90870  0.03650  0.02850  Biso   1.000  C
  C37      1.0000 0.61140  0.61140  0.39300  Biso   1.000  C
  C38      1.0000 0.55420  0.55420  0.44520  Biso   1.000  C
  C39      1.0000 0.52700  0.52700  0.40970  Biso   1.000  C
  C40      1.0000 0.52580  0.52580  0.53670  Biso   1.000  C
  C41      1.0000 0.88480  0.88480  0.11710  Biso   1.000  C
  C42      1.0000 0.94650  0.94650  0.05370  Biso   1.000  C
  C43      1.0000 0.38860  0.38860  0.60700  Biso   1.000  C
  C44      1.0000 0.44580  0.44580  0.55480  Biso   1.000  C
  C45      1.0000 0.47300  0.47300  0.59030  Biso   1.000  C
  C46      1.0000 0.47420  0.47420  0.46330  Biso   1.000  C
  C47      1.0000 0.11520  0.11520  0.88290  Biso   1.000  C
  C48      1.0000 0.05350  0.05350  0.94630  Biso   1.000  C
  O1       1.0000 0.63160  0.80440  0.43210  Biso   1.000  O
  O2       1.0000 0.63370  0.93370  0.30200  Biso   1.000  O
  O3       1.0000 0.63020  0.80340  0.13560  Biso   1.000  O
  O4       1.0000 0.63310  0.93070  0.13160  Biso   1.000  O
  O5       1.0000 0.93080  0.80240  0.13440  Biso   1.000  O
  O6       1.0000 0.19560  0.36840  0.56790  Biso   1.000  O
  O7       1.0000 0.06630  0.36630  0.69800  Biso   1.000  O
  O8       1.0000 0.19660  0.36980  0.86440  Biso   1.000  O
  O9       1.0000 0.06930  0.36690  0.86840  Biso   1.000  O
  O10      1.0000 0.19760  0.06920  0.86560  Biso   1.000  O
  O11      1.0000 0.36840  0.19560  0.56790  Biso   1.000  O
  O12      1.0000 0.36630  0.06630  0.69800  Biso   1.000  O
  O13      1.0000 0.36980  0.19660  0.86440  Biso   1.000  O
  O14      1.0000 0.36690  0.06930  0.86840  Biso   1.000  O
  O15      1.0000 0.06920  0.19760  0.86560  Biso   1.000  O
  O16      1.0000 0.80440  0.63160  0.43210  Biso   1.000  O
  O17      1.0000 0.93370  0.63370  0.30200  Biso   1.000  O
  O18      1.0000 0.80340  0.63020  0.13560  Biso   1.000  O
  O19      1.0000 0.93070  0.63310  0.13160  Biso   1.000  O
  O20      1.0000 0.80240  0.93080  0.13440  Biso   1.000  O
  O21      1.0000 0.75020  0.75020  0.25030  Biso   1.000  O
  O22      1.0000 0.63260  0.63260  0.43140  Biso   1.000  O
  O23      1.0000 0.63030  0.63030  0.31000  Biso   1.000  O
  O24      1.0000 0.24980  0.24980  0.74970  Biso   1.000  O
  O25      1.0000 0.36740  0.36740  0.56860  Biso   1.000  O
  O26      1.0000 0.36970  0.36970  0.69000  Biso   1.000  O
  Zn9      1.0000 0.42659  0.09333  0.58752  Biso   1.000  Zn
  Zn10     1.0000 0.83873  0.68099  1.00000  Biso   1.000  Zn
  Zn11     1.0000 0.83873  0.50611  1.00000  Biso   1.000  Zn
  Zn12     1.0000 0.42658  0.91845  0.58752  Biso   1.000  Zn
  Zn13     1.0000 0.42612  0.09366  0.41243  Biso   1.000  Zn
  Zn14     1.0000 0.25131  0.09348  0.58762  Biso   1.000  Zn
  Zn15     1.0000 0.83920  0.50578  0.17509  Biso   1.000  Zn
  Zn16     1.0000 0.01401  0.50596  0.99990  Biso   1.000  Zn
  H25      1.0000 0.58968  0.73882  0.44396  Biso   1.000  H
  H26      1.0000 0.58335  0.95362  0.23226  Biso   1.000  H
  H27      1.0000 0.28581  0.73992  0.74766  Biso   1.000  H
  H28      1.0000 0.06830  0.95112  0.74996  Biso   1.000  H
  H29      1.0000 0.59050  0.95312  0.74516  Biso   1.000  H
  H30      1.0000 0.67564  0.34602  0.14356  Biso   1.000  H
  H31      1.0000 0.68197  0.34282  0.35526  Biso   1.000  H
  H32      1.0000 0.97951  0.34692  0.83986  Biso   1.000  H
  H33      1.0000 0.19701  0.34292  0.83756  Biso   1.000  H
  H34      1.0000 0.67480  0.86232  0.84236  Biso   1.000  H
  H35      1.0000 0.67564  0.86062  0.14356  Biso   1.000  H
  H36      1.0000 0.68197  0.64582  0.35526  Biso   1.000  H
  H37      1.0000 0.97950  0.85952  0.83986  Biso   1.000  H
  H38      1.0000 0.19702  0.64832  0.83756  Biso   1.000  H
  H39      1.0000 0.67482  0.64632  0.84236  Biso   1.000  H
  H40      1.0000 0.58967  0.25342  0.44396  Biso   1.000  H
  H41      1.0000 0.58335  0.25662  0.23226  Biso   1.000  H
  H42      1.0000 0.28581  0.25252  0.74766  Biso   1.000  H
  H43      1.0000 0.06831  0.25652  0.74996  Biso   1.000  H
  H44      1.0000 0.59051  0.73712  0.74516  Biso   1.000  H
  H45      1.0000 0.06917  0.25532  0.44606  Biso   1.000  H
  H46      1.0000 0.28305  0.25642  0.22996  Biso   1.000  H
  H47      1.0000 0.19614  0.34412  0.14146  Biso   1.000  H
  H48      1.0000 0.98227  0.34302  0.35756  Biso   1.000  H
  C49      1.0000 0.52087  0.90992  0.40756  Biso   1.000  C
  C50      1.0000 0.58046  0.85182  0.34636  Biso   1.000  C
  C51      1.0000 0.60748  0.76452  0.38176  Biso   1.000  C
  C52      1.0000 0.60275  0.89152  0.25826  Biso   1.000  C
  C53      1.0000 0.24179  0.91312  0.68466  Biso   1.000  C
  C54      1.0000 0.18770  0.85462  0.73996  Biso   1.000  C
  C55      1.0000 0.22362  0.76612  0.76566  Biso   1.000  C
  C56      1.0000 0.09600  0.88912  0.76746  Biso   1.000  C
  C57      1.0000 0.60640  0.89102  0.76526  Biso   1.000  C
  C58      1.0000 0.74445  0.41192  0.17996  Biso   1.000  C
  C59      1.0000 0.68485  0.35222  0.24116  Biso   1.000  C
  C60      1.0000 0.65785  0.32732  0.20576  Biso   1.000  C
  C61      1.0000 0.66256  0.32612  0.32926  Biso   1.000  C
  C62      1.0000 0.02352  0.41312  0.90286  Biso   1.000  C
  C63      1.0000 0.07761  0.35582  0.84756  Biso   1.000  C
  C64      1.0000 0.04171  0.32892  0.82186  Biso   1.000  C
  C65      1.0000 0.16931  0.32612  0.82006  Biso   1.000  C
  C66      1.0000 0.65890  0.83622  0.82226  Biso   1.000  C
  C67      1.0000 0.74445  0.68952  0.17996  Biso   1.000  C
  C68      1.0000 0.68486  0.74762  0.24116  Biso   1.000  C
  C69      1.0000 0.65784  0.83492  0.20576  Biso   1.000  C
  C70      1.0000 0.66257  0.70792  0.32926  Biso   1.000  C
  C71      1.0000 0.02352  0.68632  0.90286  Biso   1.000  C
  C72      1.0000 0.07762  0.74482  0.84756  Biso   1.000  C
  C73      1.0000 0.04170  0.83332  0.82186  Biso   1.000  C
  C74      1.0000 0.16932  0.71032  0.82006  Biso   1.000  C
  C75      1.0000 0.65892  0.70842  0.82226  Biso   1.000  C
  C76      1.0000 0.52087  0.18752  0.40756  Biso   1.000  C
  C77      1.0000 0.58046  0.24722  0.34636  Biso   1.000  C
  C78      1.0000 0.60747  0.27212  0.38176  Biso   1.000  C
  C79      1.0000 0.60276  0.27332  0.25826  Biso   1.000  C
  C80      1.0000 0.24180  0.18632  0.68466  Biso   1.000  C
  C81      1.0000 0.18771  0.24362  0.73996  Biso   1.000  C
  C82      1.0000 0.22361  0.27052  0.76566  Biso   1.000  C
  C83      1.0000 0.09601  0.27332  0.76746  Biso   1.000  C
  C84      1.0000 0.60642  0.76322  0.76526  Biso   1.000  C
  C85      1.0000 0.24847  0.18832  0.40076  Biso   1.000  C
  C86      1.0000 0.18626  0.24552  0.34856  Biso   1.000  C
  C87      1.0000 0.09637  0.27272  0.38406  Biso   1.000  C
  C88      1.0000 0.22095  0.27392  0.25706  Biso   1.000  C
  C89      1.0000 0.51939  0.91492  0.67666  Biso   1.000  C
  C90      1.0000 0.57940  0.85322  0.74006  Biso   1.000  C
  C91      1.0000 0.01685  0.41112  0.18676  Biso   1.000  C
  C92      1.0000 0.07905  0.35392  0.23896  Biso   1.000  C
  C93      1.0000 0.16895  0.32672  0.20346  Biso   1.000  C
  C94      1.0000 0.04436  0.32552  0.33046  Biso   1.000  C
  C95      1.0000 0.74592  0.68452  0.91086  Biso   1.000  C
  C96      1.0000 0.68592  0.74622  0.84746  Biso   1.000  C
  O27      1.0000 0.50076  0.99532  0.36166  Biso   1.000  O
  O28      1.0000 0.50207  0.86602  0.49176  Biso   1.000  O
  O29      1.0000 0.20189  0.99632  0.65816  Biso   1.000  O
  O30      1.0000 0.32809  0.86902  0.66216  Biso   1.000  O
  O31      1.0000 0.50029  0.99732  0.65936  Biso   1.000  O
  O32      1.0000 0.76455  0.43132  0.22586  Biso   1.000  O
  O33      1.0000 0.76324  0.43342  0.09576  Biso   1.000  O
  O34      1.0000 0.06342  0.42992  0.92936  Biso   1.000  O
  O35      1.0000 0.93722  0.43282  0.92536  Biso   1.000  O
  O36      1.0000 0.76503  0.73052  0.92816  Biso   1.000  O
  O37      1.0000 0.76456  0.60412  0.22586  Biso   1.000  O
  O38      1.0000 0.76324  0.73342  0.09576  Biso   1.000  O
  O39      1.0000 0.06343  0.60312  0.92936  Biso   1.000  O
  O40      1.0000 0.93723  0.73042  0.92536  Biso   1.000  O
  O41      1.0000 0.76502  0.60212  0.92816  Biso   1.000  O
  O42      1.0000 0.50076  0.16812  0.36166  Biso   1.000  O
  O43      1.0000 0.50208  0.16602  0.49176  Biso   1.000  O
  O44      1.0000 0.20190  0.16952  0.65816  Biso   1.000  O
  O45      1.0000 0.32810  0.16662  0.66216  Biso   1.000  O
  O46      1.0000 0.50029  0.86892  0.65936  Biso   1.000  O
  O47      1.0000 0.38338  0.04952  0.54346  Biso   1.000  O
  O48      1.0000 0.32926  0.16712  0.36236  Biso   1.000  O
  O49      1.0000 0.20328  0.16942  0.48376  Biso   1.000  O
  O50      1.0000 0.88194  0.54992  0.04406  Biso   1.000  O
  O51      1.0000 0.93605  0.43232  0.22516  Biso   1.000  O
  O52      1.0000 0.06204  0.43002  0.10376  Biso   1.000  O
