data_image0
_cell_length_a       18.2519
_cell_length_b       18.2519
_cell_length_c       18.252
_cell_angle_alpha    60.0037
_cell_angle_beta     60.0037
_cell_angle_gamma    60.0005

_symmetry_space_group_name_H-M    "P 1"
_symmetry_int_tables_number       1

loop_
  _symmetry_equiv_pos_as_xyz
  'x, y, z'

loop_
  _atom_site_label
  _atom_site_occupancy
  _atom_site_fract_x
  _atom_site_fract_y
  _atom_site_fract_z
  _atom_site_thermal_displace_type
  _atom_site_B_iso_or_equiv
  _atom_site_type_symbol
  C1       1.0000 0.88088  0.70652  0.20631  Biso   1.000  C
  C2       1.0000 0.29348  0.11912  0.79369  Biso   1.000  C
  C3       1.0000 0.11912  0.29348  0.79369  Biso   1.000  C
  C4       1.0000 0.70652  0.88088  0.20631  Biso   1.000  C
  C5       1.0000 0.70633  0.70633  0.38080  Biso   1.000  C
  C6       1.0000 0.70645  0.70645  0.20610  Biso   1.000  C
  C7       1.0000 0.29367  0.29367  0.61920  Biso   1.000  C
  C8       1.0000 0.29355  0.29355  0.79390  Biso   1.000  C
  C9       1.0000 0.54380  0.06380  0.34770  Biso   1.000  C
  C10      1.0000 0.54070  0.84770  0.56160  Biso   1.000  C
  C11      1.0000 0.54740  0.06180  0.04520  Biso   1.000  C
  C12      1.0000 0.54690  0.84650  0.03990  Biso   1.000  C
  C13      1.0000 0.06290  0.84710  0.04700  Biso   1.000  C
  C14      1.0000 0.93620  0.45620  0.65230  Biso   1.000  C
  C15      1.0000 0.15230  0.45930  0.43840  Biso   1.000  C
  C16      1.0000 0.93820  0.45260  0.95480  Biso   1.000  C
  C17      1.0000 0.15350  0.45310  0.96010  Biso   1.000  C
  C18      1.0000 0.15290  0.93710  0.95300  Biso   1.000  C
  C19      1.0000 0.45620  0.93620  0.65230  Biso   1.000  C
  C20      1.0000 0.45930  0.15230  0.43840  Biso   1.000  C
  C21      1.0000 0.45260  0.93820  0.95480  Biso   1.000  C
  C22      1.0000 0.45310  0.15350  0.96010  Biso   1.000  C
  C23      1.0000 0.93710  0.15290  0.95300  Biso   1.000  C
  C24      1.0000 0.06380  0.54380  0.34770  Biso   1.000  C
  C25      1.0000 0.84770  0.54070  0.56160  Biso   1.000  C
  C26      1.0000 0.06180  0.54740  0.04520  Biso   1.000  C
  C27      1.0000 0.84650  0.54690  0.03990  Biso   1.000  C
  C28      1.0000 0.84710  0.06290  0.04700  Biso   1.000  C
  C29      1.0000 0.54510  0.54510  0.34700  Biso   1.000  C
  C30      1.0000 0.54240  0.54240  0.56550  Biso   1.000  C
  C31      1.0000 0.45490  0.45490  0.65300  Biso   1.000  C
  C32      1.0000 0.45760  0.45760  0.43450  Biso   1.000  C
  C33      1.0000 0.61180  0.89060  0.38640  Biso   1.000  C
  C34      1.0000 0.55300  0.94760  0.44680  Biso   1.000  C
  C35      1.0000 0.52690  0.03730  0.41000  Biso   1.000  C
  C36      1.0000 0.52510  0.90990  0.53600  Biso   1.000  C
  C37      1.0000 0.61220  0.88940  0.10980  Biso   1.000  C
  C38      1.0000 0.55630  0.94510  0.05290  Biso   1.000  C
  C39      1.0000 0.52850  0.03610  0.02770  Biso   1.000  C
  C40      1.0000 0.52810  0.90850  0.02430  Biso   1.000  C
  C41      1.0000 0.03660  0.90920  0.02750  Biso   1.000  C
  C42      1.0000 0.10940  0.38820  0.61360  Biso   1.000  C
  C43      1.0000 0.05240  0.44700  0.55320  Biso   1.000  C
  C44      1.0000 0.96270  0.47310  0.59000  Biso   1.000  C
  C45      1.0000 0.09010  0.47490  0.46400  Biso   1.000  C
  C46      1.0000 0.11060  0.38780  0.89020  Biso   1.000  C
  C47      1.0000 0.05490  0.44370  0.94710  Biso   1.000  C
  C48      1.0000 0.96390  0.47150  0.97230  Biso   1.000  C
  C49      1.0000 0.09150  0.47190  0.97570  Biso   1.000  C
  C50      1.0000 0.09080  0.96340  0.97250  Biso   1.000  C
  C51      1.0000 0.38820  0.10940  0.61360  Biso   1.000  C
  C52      1.0000 0.44700  0.05240  0.55320  Biso   1.000  C
  C53      1.0000 0.47310  0.96270  0.59000  Biso   1.000  C
  C54      1.0000 0.47490  0.09010  0.46400  Biso   1.000  C
  C55      1.0000 0.38780  0.11060  0.89020  Biso   1.000  C
  C56      1.0000 0.44370  0.05490  0.94710  Biso   1.000  C
  C57      1.0000 0.47150  0.96390  0.97230  Biso   1.000  C
  C58      1.0000 0.47190  0.09150  0.97570  Biso   1.000  C
  C59      1.0000 0.96340  0.09080  0.97250  Biso   1.000  C
  C60      1.0000 0.89060  0.61180  0.38640  Biso   1.000  C
  C61      1.0000 0.94760  0.55300  0.44680  Biso   1.000  C
  C62      1.0000 0.03730  0.52690  0.41000  Biso   1.000  C
  C63      1.0000 0.90990  0.52510  0.53600  Biso   1.000  C
  C64      1.0000 0.88940  0.61220  0.10980  Biso   1.000  C
  C65      1.0000 0.94510  0.55630  0.05290  Biso   1.000  C
  C66      1.0000 0.03610  0.52850  0.02770  Biso   1.000  C
  C67      1.0000 0.90850  0.52810  0.02430  Biso   1.000  C
  C68      1.0000 0.90920  0.03660  0.02750  Biso   1.000  C
  C69      1.0000 0.61010  0.61010  0.39300  Biso   1.000  C
  C70      1.0000 0.55400  0.55400  0.44600  Biso   1.000  C
  C71      1.0000 0.52740  0.52740  0.40900  Biso   1.000  C
  C72      1.0000 0.52500  0.52500  0.53800  Biso   1.000  C
  C73      1.0000 0.88650  0.88650  0.11500  Biso   1.000  C
  C74      1.0000 0.94670  0.94670  0.05300  Biso   1.000  C
  C75      1.0000 0.38990  0.38990  0.60700  Biso   1.000  C
  C76      1.0000 0.44600  0.44600  0.55400  Biso   1.000  C
  C77      1.0000 0.47260  0.47260  0.59100  Biso   1.000  C
  C78      1.0000 0.47500  0.47500  0.46200  Biso   1.000  C
  C79      1.0000 0.11350  0.11350  0.88500  Biso   1.000  C
  C80      1.0000 0.05330  0.05330  0.94700  Biso   1.000  C
  C81      1.0000 0.63190  0.80490  0.42990  Biso   1.000  C
  C82      1.0000 0.63430  0.93110  0.30370  Biso   1.000  C
  C83      1.0000 0.63160  0.80380  0.13510  Biso   1.000  C
  C84      1.0000 0.63380  0.92960  0.13230  Biso   1.000  C
  C85      1.0000 0.92890  0.80350  0.13460  Biso   1.000  C
  C86      1.0000 0.19510  0.36810  0.57010  Biso   1.000  C
  C87      1.0000 0.06890  0.36570  0.69630  Biso   1.000  C
  C88      1.0000 0.19620  0.36840  0.86490  Biso   1.000  C
  C89      1.0000 0.07040  0.36620  0.86770  Biso   1.000  C
  C90      1.0000 0.19650  0.07110  0.86540  Biso   1.000  C
  C91      1.0000 0.36810  0.19510  0.57010  Biso   1.000  C
  C92      1.0000 0.36570  0.06890  0.69630  Biso   1.000  C
  C93      1.0000 0.36840  0.19620  0.86490  Biso   1.000  C
  C94      1.0000 0.36620  0.07040  0.86770  Biso   1.000  C
  C95      1.0000 0.07110  0.19650  0.86540  Biso   1.000  C
  C96      1.0000 0.80490  0.63190  0.42990  Biso   1.000  C
  C97      1.0000 0.93110  0.63430  0.30370  Biso   1.000  C
  C98      1.0000 0.80380  0.63160  0.13510  Biso   1.000  C
  C99      1.0000 0.92960  0.63380  0.13230  Biso   1.000  C
  C100     1.0000 0.80350  0.92890  0.13460  Biso   1.000  C
  C101     1.0000 0.74990  0.74990  0.25020  Biso   1.000  C
  C102     1.0000 0.63330  0.63330  0.42890  Biso   1.000  C
  C103     1.0000 0.63170  0.63170  0.30840  Biso   1.000  C
  C104     1.0000 0.25010  0.25010  0.74980  Biso   1.000  C
  C105     1.0000 0.36670  0.36670  0.57110  Biso   1.000  C
  C106     1.0000 0.36830  0.36830  0.69160  Biso   1.000  C
  O1       1.0000 0.42679  0.09307  0.58738  Biso   1.000  O
  O2       1.0000 0.83931  0.68047  1.00000  Biso   1.000  O
  O3       1.0000 0.83931  0.50611  1.00000  Biso   1.000  O
  O4       1.0000 0.42678  0.91871  0.58738  Biso   1.000  O
  O5       1.0000 0.42652  0.09326  0.41289  Biso   1.000  O
  O6       1.0000 0.25208  0.09314  0.58759  Biso   1.000  O
  O7       1.0000 0.83958  0.50592  0.17449  Biso   1.000  O
  O8       1.0000 0.01402  0.50604  0.99979  Biso   1.000  O
  O9       1.0000 0.58837  0.73579  0.44599  Biso   1.000  O
  O10      1.0000 0.58304  0.95189  0.23209  Biso   1.000  O
  O11      1.0000 0.28750  0.73779  0.74849  Biso   1.000  O
  O12      1.0000 0.06639  0.95309  0.75379  Biso   1.000  O
  O13      1.0000 0.59009  0.95249  0.74669  Biso   1.000  O
  O14      1.0000 0.67773  0.34339  0.14139  Biso   1.000  O
  O15      1.0000 0.68306  0.34029  0.35529  Biso   1.000  O
  O16      1.0000 0.97860  0.34699  0.83889  Biso   1.000  O
  O17      1.0000 0.19970  0.34649  0.83359  Biso   1.000  O
  O18      1.0000 0.67599  0.86249  0.84069  Biso   1.000  O
  O19      1.0000 0.67773  0.86339  0.14139  Biso   1.000  O
  O20      1.0000 0.68306  0.64729  0.35529  Biso   1.000  O
  O21      1.0000 0.97859  0.86139  0.83889  Biso   1.000  O
  O22      1.0000 0.19971  0.64609  0.83359  Biso   1.000  O
  O23      1.0000 0.67601  0.64669  0.84069  Biso   1.000  O
  O24      1.0000 0.58836  0.25579  0.44599  Biso   1.000  O
  O25      1.0000 0.58304  0.25889  0.23209  Biso   1.000  O
  O26      1.0000 0.28750  0.25219  0.74849  Biso   1.000  O
  O27      1.0000 0.06640  0.25269  0.75379  Biso   1.000  O
  O28      1.0000 0.59010  0.73669  0.74669  Biso   1.000  O
  O29      1.0000 0.07026  0.25449  0.44669  Biso   1.000  O
  O30      1.0000 0.28334  0.25719  0.22819  Biso   1.000  O
  O31      1.0000 0.19583  0.34469  0.14069  Biso   1.000  O
  O32      1.0000 0.98276  0.34199  0.35919  Biso   1.000  O
  O33      1.0000 0.52186  0.90899  0.40729  Biso   1.000  O
  O34      1.0000 0.58045  0.85199  0.34689  Biso   1.000  O
  O35      1.0000 0.60727  0.76229  0.38369  Biso   1.000  O
  O36      1.0000 0.60404  0.88969  0.25769  Biso   1.000  O
  O37      1.0000 0.24448  0.91019  0.68389  Biso   1.000  O
  O38      1.0000 0.18739  0.85449  0.74079  Biso   1.000  O
  O39      1.0000 0.22541  0.76349  0.76599  Biso   1.000  O
  O40      1.0000 0.09399  0.89109  0.76939  Biso   1.000  O
  O41      1.0000 0.60639  0.89039  0.76619  Biso   1.000  O
  O42      1.0000 0.74424  0.41139  0.18009  Biso   1.000  O
  O43      1.0000 0.68564  0.35259  0.24049  Biso   1.000  O
  O44      1.0000 0.65884  0.32649  0.20369  Biso   1.000  O
  O45      1.0000 0.66205  0.32469  0.32969  Biso   1.000  O
  O46      1.0000 0.02161  0.41179  0.90349  Biso   1.000  O
  O47      1.0000 0.07870  0.35589  0.84659  Biso   1.000  O
  O48      1.0000 0.04070  0.32809  0.82139  Biso   1.000  O
  O49      1.0000 0.17210  0.32769  0.81799  Biso   1.000  O
  O50      1.0000 0.65969  0.83619  0.82119  Biso   1.000  O
  O51      1.0000 0.74424  0.69019  0.18009  Biso   1.000  O
  O52      1.0000 0.68565  0.74719  0.24049  Biso   1.000  O
  O53      1.0000 0.65883  0.83689  0.20369  Biso   1.000  O
  O54      1.0000 0.66206  0.70949  0.32969  Biso   1.000  O
  O55      1.0000 0.02161  0.68899  0.90349  Biso   1.000  O
  O56      1.0000 0.07871  0.74469  0.84659  Biso   1.000  O
  O57      1.0000 0.04069  0.83569  0.82139  Biso   1.000  O
  O58      1.0000 0.17210  0.70809  0.81799  Biso   1.000  O
  O59      1.0000 0.65971  0.70879  0.82119  Biso   1.000  O
  O60      1.0000 0.52186  0.18779  0.40729  Biso   1.000  O
  O61      1.0000 0.58045  0.24659  0.34689  Biso   1.000  O
  O62      1.0000 0.60726  0.27269  0.38369  Biso   1.000  O
  O63      1.0000 0.60404  0.27449  0.25769  Biso   1.000  O
  O64      1.0000 0.24449  0.18739  0.68389  Biso   1.000  O
  O65      1.0000 0.18740  0.24329  0.74079  Biso   1.000  O
  O66      1.0000 0.22540  0.27109  0.76599  Biso   1.000  O
  O67      1.0000 0.09400  0.27149  0.76939  Biso   1.000  O
  O68      1.0000 0.60641  0.76299  0.76619  Biso   1.000  O
  O69      1.0000 0.24626  0.18949  0.40069  Biso   1.000  O
  O70      1.0000 0.18705  0.24559  0.34769  Biso   1.000  O
  O71      1.0000 0.09686  0.27219  0.38469  Biso   1.000  O
  O72      1.0000 0.22104  0.27459  0.25569  Biso   1.000  O
  O73      1.0000 0.52108  0.91309  0.67869  Biso   1.000  O
  O74      1.0000 0.57949  0.85289  0.74069  Biso   1.000  O
  O75      1.0000 0.01984  0.40969  0.18669  Biso   1.000  O
  O76      1.0000 0.07904  0.35359  0.23969  Biso   1.000  O
  O77      1.0000 0.16924  0.32699  0.20269  Biso   1.000  O
  O78      1.0000 0.04505  0.32459  0.33169  Biso   1.000  O
  O79      1.0000 0.74501  0.68609  0.90869  Biso   1.000  O
  O80      1.0000 0.68661  0.74629  0.84669  Biso   1.000  O
  O81      1.0000 0.49975  0.99469  0.36379  Biso   1.000  O
  O82      1.0000 0.50216  0.86849  0.48999  Biso   1.000  O
  O83      1.0000 0.20358  0.99579  0.65859  Biso   1.000  O
  O84      1.0000 0.32878  0.86999  0.66139  Biso   1.000  O
  O85      1.0000 0.50008  0.99609  0.65909  Biso   1.000  O
  O86      1.0000 0.76634  0.43149  0.22359  Biso   1.000  O
  O87      1.0000 0.76393  0.43389  0.09739  Biso   1.000  O
  O88      1.0000 0.06251  0.43119  0.92879  Biso   1.000  O
  O89      1.0000 0.93731  0.43339  0.92599  Biso   1.000  O
  O90      1.0000 0.76602  0.72849  0.92829  Biso   1.000  O
  O91      1.0000 0.76635  0.60449  0.22359  Biso   1.000  O
  O92      1.0000 0.76393  0.73069  0.09739  Biso   1.000  O
  O93      1.0000 0.06251  0.60339  0.92879  Biso   1.000  O
  O94      1.0000 0.93732  0.72919  0.92599  Biso   1.000  O
  O95      1.0000 0.76601  0.60309  0.92829  Biso   1.000  O
  O96      1.0000 0.49975  0.16769  0.36379  Biso   1.000  O
  O97      1.0000 0.50217  0.16529  0.48999  Biso   1.000  O
  O98      1.0000 0.20359  0.16799  0.65859  Biso   1.000  O
  O99      1.0000 0.32879  0.16579  0.66139  Biso   1.000  O
  O100     1.0000 0.50008  0.87069  0.65909  Biso   1.000  O
  O101     1.0000 0.38307  0.04969  0.54349  Biso   1.000  O
  O102     1.0000 0.32855  0.16629  0.36479  Biso   1.000  O
  O103     1.0000 0.20487  0.16789  0.48529  Biso   1.000  O
  O104     1.0000 0.88303  0.54949  0.04389  Biso   1.000  O
  O105     1.0000 0.93754  0.43289  0.22259  Biso   1.000  O
  O106     1.0000 0.06123  0.43129  0.10209  Biso   1.000  O
