data_image0
_cell_length_a       18.2519
_cell_length_b       18.2519
_cell_length_c       18.252
_cell_angle_alpha    60.0037
_cell_angle_beta     60.0037
_cell_angle_gamma    60.0005

_symmetry_space_group_name_H-M    "P 1"
_symmetry_int_tables_number       1

loop_
  _symmetry_equiv_pos_as_xyz
  'x, y, z'

loop_
  _atom_site_label
  _atom_site_occupancy
  _atom_site_fract_x
  _atom_site_fract_y
  _atom_site_fract_z
  _atom_site_thermal_displace_type
  _atom_site_B_iso_or_equiv
  _atom_site_type_symbol
  Zn1      1.0000 0.88088  0.70652  0.20631  Biso   1.000  Zn
  Zn2      1.0000 0.29348  0.11912  0.79369  Biso   1.000  Zn
  Zn3      1.0000 0.11912  0.29348  0.79369  Biso   1.000  Zn
  Zn4      1.0000 0.70652  0.88088  0.20631  Biso   1.000  Zn
  Zn5      1.0000 0.70633  0.70633  0.38080  Biso   1.000  Zn
  Zn6      1.0000 0.70645  0.70645  0.20610  Biso   1.000  Zn
  Zn7      1.0000 0.29367  0.29367  0.61920  Biso   1.000  Zn
  Zn8      1.0000 0.29355  0.29355  0.79390  Biso   1.000  Zn
  H1       1.0000 0.54380  0.06380  0.34770  Biso   1.000  H
  H2       1.0000 0.54070  0.84770  0.56160  Biso   1.000  H
  H3       1.0000 0.54740  0.06180  0.04520  Biso   1.000  H
  H4       1.0000 0.54690  0.84650  0.03990  Biso   1.000  H
  H5       1.0000 0.06290  0.84710  0.04700  Biso   1.000  H
  H6       1.0000 0.93620  0.45620  0.65230  Biso   1.000  H
  H7       1.0000 0.15230  0.45930  0.43840  Biso   1.000  H
  H8       1.0000 0.93820  0.45260  0.95480  Biso   1.000  H
  H9       1.0000 0.15350  0.45310  0.96010  Biso   1.000  H
  H10      1.0000 0.15290  0.93710  0.95300  Biso   1.000  H
  H11      1.0000 0.45620  0.93620  0.65230  Biso   1.000  H
  H12      1.0000 0.45930  0.15230  0.43840  Biso   1.000  H
  H13      1.0000 0.45260  0.93820  0.95480  Biso   1.000  H
  H14      1.0000 0.45310  0.15350  0.96010  Biso   1.000  H
  H15      1.0000 0.93710  0.15290  0.95300  Biso   1.000  H
  H16      1.0000 0.06380  0.54380  0.34770  Biso   1.000  H
  H17      1.0000 0.84770  0.54070  0.56160  Biso   1.000  H
  H18      1.0000 0.06180  0.54740  0.04520  Biso   1.000  H
  H19      1.0000 0.84650  0.54690  0.03990  Biso   1.000  H
  H20      1.0000 0.84710  0.06290  0.04700  Biso   1.000  H
  H21      1.0000 0.54510  0.54510  0.34700  Biso   1.000  H
  H22      1.0000 0.54240  0.54240  0.56550  Biso   1.000  H
  H23      1.0000 0.45490  0.45490  0.65300  Biso   1.000  H
  H24      1.0000 0.45760  0.45760  0.43450  Biso   1.000  H
  C1       1.0000 0.61180  0.89060  0.38640  Biso   1.000  C
  C2       1.0000 0.55300  0.94760  0.44680  Biso   1.000  C
  C3       1.0000 0.52690  0.03730  0.41000  Biso   1.000  C
  C4       1.0000 0.52510  0.90990  0.53600  Biso   1.000  C
  C5       1.0000 0.61220  0.88940  0.10980  Biso   1.000  C
  C6       1.0000 0.55630  0.94510  0.05290  Biso   1.000  C
  C7       1.0000 0.52850  0.03610  0.02770  Biso   1.000  C
  C8       1.0000 0.52810  0.90850  0.02430  Biso   1.000  C
  C9       1.0000 0.03660  0.90920  0.02750  Biso   1.000  C
  C10      1.0000 0.10940  0.38820  0.61360  Biso   1.000  C
  C11      1.0000 0.05240  0.44700  0.55320  Biso   1.000  C
  C12      1.0000 0.96270  0.47310  0.59000  Biso   1.000  C
  C13      1.0000 0.09010  0.47490  0.46400  Biso   1.000  C
  C14      1.0000 0.11060  0.38780  0.89020  Biso   1.000  C
  C15      1.0000 0.05490  0.44370  0.94710  Biso   1.000  C
  C16      1.0000 0.96390  0.47150  0.97230  Biso   1.000  C
  C17      1.0000 0.09150  0.47190  0.97570  Biso   1.000  C
  C18      1.0000 0.09080  0.96340  0.97250  Biso   1.000  C
  C19      1.0000 0.38820  0.10940  0.61360  Biso   1.000  C
  C20      1.0000 0.44700  0.05240  0.55320  Biso   1.000  C
  C21      1.0000 0.47310  0.96270  0.59000  Biso   1.000  C
  C22      1.0000 0.47490  0.09010  0.46400  Biso   1.000  C
  C23      1.0000 0.38780  0.11060  0.89020  Biso   1.000  C
  C24      1.0000 0.44370  0.05490  0.94710  Biso   1.000  C
  C25      1.0000 0.47150  0.96390  0.97230  Biso   1.000  C
  C26      1.0000 0.47190  0.09150  0.97570  Biso   1.000  C
  C27      1.0000 0.96340  0.09080  0.97250  Biso   1.000  C
  C28      1.0000 0.89060  0.61180  0.38640  Biso   1.000  C
  C29      1.0000 0.94760  0.55300  0.44680  Biso   1.000  C
  C30      1.0000 0.03730  0.52690  0.41000  Biso   1.000  C
  C31      1.0000 0.90990  0.52510  0.53600  Biso   1.000  C
  C32      1.0000 0.88940  0.61220  0.10980  Biso   1.000  C
  C33      1.0000 0.94510  0.55630  0.05290  Biso   1.000  C
  C34      1.0000 0.03610  0.52850  0.02770  Biso   1.000  C
  C35      1.0000 0.90850  0.52810  0.02430  Biso   1.000  C
  C36      1.0000 0.90920  0.03660  0.02750  Biso   1.000  C
  C37      1.0000 0.61010  0.61010  0.39300  Biso   1.000  C
  C38      1.0000 0.55400  0.55400  0.44600  Biso   1.000  C
  C39      1.0000 0.52740  0.52740  0.40900  Biso   1.000  C
  C40      1.0000 0.52500  0.52500  0.53800  Biso   1.000  C
  C41      1.0000 0.88650  0.88650  0.11500  Biso   1.000  C
  C42      1.0000 0.94670  0.94670  0.05300  Biso   1.000  C
  C43      1.0000 0.38990  0.38990  0.60700  Biso   1.000  C
  C44      1.0000 0.44600  0.44600  0.55400  Biso   1.000  C
  C45      1.0000 0.47260  0.47260  0.59100  Biso   1.000  C
  C46      1.0000 0.47500  0.47500  0.46200  Biso   1.000  C
  C47      1.0000 0.11350  0.11350  0.88500  Biso   1.000  C
  C48      1.0000 0.05330  0.05330  0.94700  Biso   1.000  C
  O1       1.0000 0.63190  0.80490  0.42990  Biso   1.000  O
  O2       1.0000 0.63430  0.93110  0.30370  Biso   1.000  O
  O3       1.0000 0.63160  0.80380  0.13510  Biso   1.000  O
  O4       1.0000 0.63380  0.92960  0.13230  Biso   1.000  O
  O5       1.0000 0.92890  0.80350  0.13460  Biso   1.000  O
  O6       1.0000 0.19510  0.36810  0.57010  Biso   1.000  O
  O7       1.0000 0.06890  0.36570  0.69630  Biso   1.000  O
  O8       1.0000 0.19620  0.36840  0.86490  Biso   1.000  O
  O9       1.0000 0.07040  0.36620  0.86770  Biso   1.000  O
  O10      1.0000 0.19650  0.07110  0.86540  Biso   1.000  O
  O11      1.0000 0.36810  0.19510  0.57010  Biso   1.000  O
  O12      1.0000 0.36570  0.06890  0.69630  Biso   1.000  O
  O13      1.0000 0.36840  0.19620  0.86490  Biso   1.000  O
  O14      1.0000 0.36620  0.07040  0.86770  Biso   1.000  O
  O15      1.0000 0.07110  0.19650  0.86540  Biso   1.000  O
  O16      1.0000 0.80490  0.63190  0.42990  Biso   1.000  O
  O17      1.0000 0.93110  0.63430  0.30370  Biso   1.000  O
  O18      1.0000 0.80380  0.63160  0.13510  Biso   1.000  O
  O19      1.0000 0.92960  0.63380  0.13230  Biso   1.000  O
  O20      1.0000 0.80350  0.92890  0.13460  Biso   1.000  O
  O21      1.0000 0.74990  0.74990  0.25020  Biso   1.000  O
  O22      1.0000 0.63330  0.63330  0.42890  Biso   1.000  O
  O23      1.0000 0.63170  0.63170  0.30840  Biso   1.000  O
  O24      1.0000 0.25010  0.25010  0.74980  Biso   1.000  O
  O25      1.0000 0.36670  0.36670  0.57110  Biso   1.000  O
  O26      1.0000 0.36830  0.36830  0.69160  Biso   1.000  O
  Zn9      1.0000 0.94507  0.34884  0.37013  Biso   1.000  Zn
  Zn10     1.0000 0.94507  0.17743  0.37013  Biso   1.000  Zn
  Zn11     1.0000 0.55450  0.75524  0.77645  Biso   1.000  Zn
  Zn12     1.0000 0.11647  0.17743  0.37013  Biso   1.000  Zn
  Zn13     1.0000 0.55451  0.58385  0.94782  Biso   1.000  Zn
  Zn14     1.0000 0.38311  0.75525  0.94782  Biso   1.000  Zn
  Zn15     1.0000 0.55451  0.75525  0.94782  Biso   1.000  Zn
  Zn16     1.0000 0.94508  0.17744  0.54151  Biso   1.000  Zn
  C49      1.0000 0.73301  0.43005  0.12628  Biso   1.000  C
  C50      1.0000 0.14824  0.50263  0.19167  Biso   1.000  C
  C51      1.0000 0.35135  0.93375  0.12628  Biso   1.000  C
  C52      1.0000 0.79493  0.41329  0.60594  Biso   1.000  C
  C53      1.0000 0.73299  0.93372  0.62267  Biso   1.000  C
  C54      1.0000 0.79491  0.41327  0.22001  Biso   1.000  C
  C55      1.0000 0.64680  0.57728  0.04009  Biso   1.000  C
  C56      1.0000 0.76656  0.38060  0.19167  Biso   1.000  C
  C57      1.0000 0.76657  0.50263  0.19167  Biso   1.000  C
  C58      1.0000 0.18093  0.02730  0.60594  Biso   1.000  C
  C59      1.0000 0.18091  0.41327  0.22001  Biso   1.000  C
  C60      1.0000 0.73299  0.43003  0.74468  Biso   1.000  C
  C61      1.0000 0.22930  0.55209  0.12628  Biso   1.000  C
  C62      1.0000 0.12305  0.35541  0.27787  Biso   1.000  C
  C63      1.0000 0.85280  0.08517  0.54808  Biso   1.000  C
  C64      1.0000 0.37654  0.84753  0.04009  Biso   1.000  C
  C65      1.0000 0.12304  0.08515  0.27787  Biso   1.000  C
  C66      1.0000 0.85279  0.35541  0.27787  Biso   1.000  C
  C67      1.0000 0.73302  0.55209  0.12628  Biso   1.000  C
  C68      1.0000 0.27027  0.99894  0.19167  Biso   1.000  C
  C69      1.0000 0.37654  0.57728  0.04009  Biso   1.000  C
  C70      1.0000 0.14823  0.99894  0.19167  Biso   1.000  C
  C71      1.0000 0.73299  0.55206  0.62267  Biso   1.000  C
  C72      1.0000 0.12306  0.08517  0.54808  Biso   1.000  C
  C73      1.0000 0.76658  0.99896  0.57327  Biso   1.000  C
  C74      1.0000 0.64678  0.84752  0.76988  Biso   1.000  C
  C75      1.0000 0.31867  0.51941  0.09795  Biso   1.000  C
  C76      1.0000 0.22931  0.93375  0.12628  Biso   1.000  C
  C77      1.0000 0.14826  0.99896  0.69529  Biso   1.000  C
  C78      1.0000 0.85280  0.35542  0.54808  Biso   1.000  C
  C79      1.0000 0.73300  0.93373  0.74468  Biso   1.000  C
  C80      1.0000 0.27029  0.99896  0.57327  Biso   1.000  C
  C81      1.0000 0.70465  0.90539  0.71202  Biso   1.000  C
  C82      1.0000 0.35134  0.43005  0.12628  Biso   1.000  C
  C83      1.0000 0.22929  0.93373  0.74468  Biso   1.000  C
  C84      1.0000 0.64678  0.57727  0.76988  Biso   1.000  C
  C85      1.0000 0.35132  0.93372  0.62267  Biso   1.000  C
  C86      1.0000 0.76659  0.50265  0.57327  Biso   1.000  C
  C87      1.0000 0.76659  0.38062  0.69529  Biso   1.000  C
  C88      1.0000 0.18091  0.02728  0.22001  Biso   1.000  C
  C89      1.0000 0.27028  0.38060  0.19167  Biso   1.000  C
  C90      1.0000 0.31867  0.90541  0.09795  Biso   1.000  C
  C91      1.0000 0.70465  0.51939  0.71202  Biso   1.000  C
  C92      1.0000 0.37652  0.84752  0.76988  Biso   1.000  C
  C93      1.0000 0.31865  0.90539  0.71202  Biso   1.000  C
  C94      1.0000 0.79493  0.02730  0.60594  Biso   1.000  C
  C95      1.0000 0.76659  0.99896  0.69529  Biso   1.000  C
  C96      1.0000 0.70467  0.51941  0.09794  Biso   1.000  C
  O27      1.0000 0.45948  0.53547  0.01952  Biso   1.000  O
  O28      1.0000 0.62621  0.53546  0.85281  Biso   1.000  O
  O29      1.0000 0.04010  0.39722  0.29843  Biso   1.000  O
  O30      1.0000 0.62621  0.82695  0.72807  Biso   1.000  O
  O31      1.0000 0.45947  0.82695  0.72807  Biso   1.000  O
  O32      1.0000 0.87337  0.39722  0.46515  Biso   1.000  O
  O33      1.0000 0.87337  0.10574  0.58988  Biso   1.000  O
  O34      1.0000 0.04011  0.10574  0.58988  Biso   1.000  O
  O35      1.0000 0.33473  0.66022  0.01952  Biso   1.000  O
  O36      1.0000 0.62623  0.66022  0.01952  Biso   1.000  O
  O37      1.0000 0.16485  0.27246  0.29843  Biso   1.000  O
  O38      1.0000 0.33472  0.82695  0.85281  Biso   1.000  O
  O39      1.0000 0.16485  0.10572  0.29843  Biso   1.000  O
  O40      1.0000 0.87336  0.27246  0.29843  Biso   1.000  O
  O41      1.0000 0.04010  0.10572  0.29843  Biso   1.000  O
  O42      1.0000 0.62621  0.66021  0.72807  Biso   1.000  O
  O43      1.0000 0.51166  0.71240  0.90498  Biso   1.000  O
  O44      1.0000 0.62622  0.53547  0.01952  Biso   1.000  O
  O45      1.0000 0.87336  0.39722  0.29843  Biso   1.000  O
  O46      1.0000 0.87336  0.10573  0.46515  Biso   1.000  O
  O47      1.0000 0.45948  0.82696  0.01952  Biso   1.000  O
  O48      1.0000 0.16486  0.10573  0.46515  Biso   1.000  O
  O49      1.0000 0.98792  0.22029  0.41297  Biso   1.000  O
  O50      1.0000 0.33473  0.82696  0.01952  Biso   1.000  O
  O51      1.0000 0.87337  0.27248  0.58988  Biso   1.000  O
  O52      1.0000 0.62622  0.82695  0.85281  Biso   1.000  O
  H25      1.0000 0.71111  0.39829  0.10438  Biso   1.000  H
  H26      1.0000 0.07319  0.53831  0.21135  Biso   1.000  H
  H27      1.0000 0.42692  0.91184  0.10438  Biso   1.000  H
  H28      1.0000 0.71108  0.91182  0.59091  Biso   1.000  H
  H29      1.0000 0.78847  0.30502  0.21357  Biso   1.000  H
  H30      1.0000 0.78625  0.53831  0.21135  Biso   1.000  H
  H31      1.0000 0.71109  0.39828  0.82025  Biso   1.000  H
  H32      1.0000 0.19754  0.62766  0.10438  Biso   1.000  H
  H33      1.0000 0.71111  0.62766  0.10438  Biso   1.000  H
  H34      1.0000 0.30203  0.02084  0.21357  Biso   1.000  H
  H35      1.0000 0.07266  0.02084  0.21357  Biso   1.000  H
  H36      1.0000 0.71108  0.62764  0.59091  Biso   1.000  H
  H37      1.0000 0.78849  0.02086  0.49771  Biso   1.000  H
  H38      1.0000 0.19755  0.91184  0.10438  Biso   1.000  H
  H39      1.0000 0.07322  0.01865  0.73096  Biso   1.000  H
  H40      1.0000 0.71332  0.91405  0.81972  Biso   1.000  H
  H41      1.0000 0.30597  0.01863  0.49824  Biso   1.000  H
  H42      1.0000 0.42639  0.39437  0.10660  Biso   1.000  H
  H43      1.0000 0.19753  0.91183  0.82025  Biso   1.000  H
  H44      1.0000 0.42689  0.91182  0.59091  Biso   1.000  H
  H45      1.0000 0.78627  0.53833  0.49824  Biso   1.000  H
  H46      1.0000 0.78628  0.30558  0.73096  Biso   1.000  H
  H47      1.0000 0.30595  0.30556  0.21135  Biso   1.000  H
  H48      1.0000 0.78850  0.02087  0.72704  Biso   1.000  H
