data_image0
_cell_length_a       18.2519
_cell_length_b       18.2519
_cell_length_c       18.252
_cell_angle_alpha    60.0037
_cell_angle_beta     60.0037
_cell_angle_gamma    60.0005

_symmetry_space_group_name_H-M    "P 1"
_symmetry_int_tables_number       1

loop_
  _symmetry_equiv_pos_as_xyz
  'x, y, z'

loop_
  _atom_site_label
  _atom_site_occupancy
  _atom_site_fract_x
  _atom_site_fract_y
  _atom_site_fract_z
  _atom_site_thermal_displace_type
  _atom_site_B_iso_or_equiv
  _atom_site_type_symbol
  C1       1.0000 0.88127  0.70639  0.20624  Biso   1.000  C
  C2       1.0000 0.29361  0.11873  0.79376  Biso   1.000  C
  C3       1.0000 0.11873  0.29361  0.79376  Biso   1.000  C
  C4       1.0000 0.70639  0.88127  0.20624  Biso   1.000  C
  C5       1.0000 0.70606  0.70606  0.38133  Biso   1.000  C
  C6       1.0000 0.70624  0.70624  0.20614  Biso   1.000  C
  C7       1.0000 0.29394  0.29394  0.61867  Biso   1.000  C
  C8       1.0000 0.29376  0.29376  0.79386  Biso   1.000  C
  C9       1.0000 0.54630  0.06090  0.34980  Biso   1.000  C
  C10      1.0000 0.54310  0.84610  0.56150  Biso   1.000  C
  C11      1.0000 0.54720  0.05980  0.04610  Biso   1.000  C
  C12      1.0000 0.54320  0.84860  0.04380  Biso   1.000  C
  C13      1.0000 0.06260  0.84660  0.04860  Biso   1.000  C
  C14      1.0000 0.93910  0.45370  0.65020  Biso   1.000  C
  C15      1.0000 0.15390  0.45690  0.43850  Biso   1.000  C
  C16      1.0000 0.94020  0.45280  0.95390  Biso   1.000  C
  C17      1.0000 0.15140  0.45680  0.95620  Biso   1.000  C
  C18      1.0000 0.15340  0.93740  0.95140  Biso   1.000  C
  C19      1.0000 0.45370  0.93910  0.65020  Biso   1.000  C
  C20      1.0000 0.45690  0.15390  0.43850  Biso   1.000  C
  C21      1.0000 0.45280  0.94020  0.95390  Biso   1.000  C
  C22      1.0000 0.45680  0.15140  0.95620  Biso   1.000  C
  C23      1.0000 0.93740  0.15340  0.95140  Biso   1.000  C
  C24      1.0000 0.06090  0.54630  0.34980  Biso   1.000  C
  C25      1.0000 0.84610  0.54310  0.56150  Biso   1.000  C
  C26      1.0000 0.05980  0.54720  0.04610  Biso   1.000  C
  C27      1.0000 0.84860  0.54320  0.04380  Biso   1.000  C
  C28      1.0000 0.84660  0.06260  0.04860  Biso   1.000  C
  C29      1.0000 0.54440  0.54440  0.34770  Biso   1.000  C
  C30      1.0000 0.54330  0.54330  0.56380  Biso   1.000  C
  C31      1.0000 0.45560  0.45560  0.65230  Biso   1.000  C
  C32      1.0000 0.45670  0.45670  0.43620  Biso   1.000  C
  C33      1.0000 0.61220  0.88980  0.38620  Biso   1.000  C
  C34      1.0000 0.55250  0.94790  0.44740  Biso   1.000  C
  C35      1.0000 0.52760  0.03520  0.41200  Biso   1.000  C
  C36      1.0000 0.52640  0.90820  0.53550  Biso   1.000  C
  C37      1.0000 0.61340  0.88660  0.10910  Biso   1.000  C
  C38      1.0000 0.55610  0.94510  0.05380  Biso   1.000  C
  C39      1.0000 0.52920  0.03360  0.02810  Biso   1.000  C
  C40      1.0000 0.52640  0.91060  0.02630  Biso   1.000  C
  C41      1.0000 0.03650  0.90870  0.02850  Biso   1.000  C
  C42      1.0000 0.11020  0.38780  0.61380  Biso   1.000  C
  C43      1.0000 0.05210  0.44750  0.55260  Biso   1.000  C
  C44      1.0000 0.96480  0.47240  0.58800  Biso   1.000  C
  C45      1.0000 0.09180  0.47360  0.46450  Biso   1.000  C
  C46      1.0000 0.11340  0.38660  0.89090  Biso   1.000  C
  C47      1.0000 0.05490  0.44390  0.94620  Biso   1.000  C
  C48      1.0000 0.96640  0.47080  0.97190  Biso   1.000  C
  C49      1.0000 0.08940  0.47360  0.97370  Biso   1.000  C
  C50      1.0000 0.09130  0.96350  0.97150  Biso   1.000  C
  C51      1.0000 0.38780  0.11020  0.61380  Biso   1.000  C
  C52      1.0000 0.44750  0.05210  0.55260  Biso   1.000  C
  C53      1.0000 0.47240  0.96480  0.58800  Biso   1.000  C
  C54      1.0000 0.47360  0.09180  0.46450  Biso   1.000  C
  C55      1.0000 0.38660  0.11340  0.89090  Biso   1.000  C
  C56      1.0000 0.44390  0.05490  0.94620  Biso   1.000  C
  C57      1.0000 0.47080  0.96640  0.97190  Biso   1.000  C
  C58      1.0000 0.47360  0.08940  0.97370  Biso   1.000  C
  C59      1.0000 0.96350  0.09130  0.97150  Biso   1.000  C
  C60      1.0000 0.88980  0.61220  0.38620  Biso   1.000  C
  C61      1.0000 0.94790  0.55250  0.44740  Biso   1.000  C
  C62      1.0000 0.03520  0.52760  0.41200  Biso   1.000  C
  C63      1.0000 0.90820  0.52640  0.53550  Biso   1.000  C
  C64      1.0000 0.88660  0.61340  0.10910  Biso   1.000  C
  C65      1.0000 0.94510  0.55610  0.05380  Biso   1.000  C
  C66      1.0000 0.03360  0.52920  0.02810  Biso   1.000  C
  C67      1.0000 0.91060  0.52640  0.02630  Biso   1.000  C
  C68      1.0000 0.90870  0.03650  0.02850  Biso   1.000  C
  C69      1.0000 0.61140  0.61140  0.39300  Biso   1.000  C
  C70      1.0000 0.55420  0.55420  0.44520  Biso   1.000  C
  C71      1.0000 0.52700  0.52700  0.40970  Biso   1.000  C
  C72      1.0000 0.52580  0.52580  0.53670  Biso   1.000  C
  C73      1.0000 0.88480  0.88480  0.11710  Biso   1.000  C
  C74      1.0000 0.94650  0.94650  0.05370  Biso   1.000  C
  C75      1.0000 0.38860  0.38860  0.60700  Biso   1.000  C
  C76      1.0000 0.44580  0.44580  0.55480  Biso   1.000  C
  C77      1.0000 0.47300  0.47300  0.59030  Biso   1.000  C
  C78      1.0000 0.47420  0.47420  0.46330  Biso   1.000  C
  C79      1.0000 0.11520  0.11520  0.88290  Biso   1.000  C
  C80      1.0000 0.05350  0.05350  0.94630  Biso   1.000  C
  C81      1.0000 0.63160  0.80440  0.43210  Biso   1.000  C
  C82      1.0000 0.63370  0.93370  0.30200  Biso   1.000  C
  C83      1.0000 0.63020  0.80340  0.13560  Biso   1.000  C
  C84      1.0000 0.63310  0.93070  0.13160  Biso   1.000  C
  C85      1.0000 0.93080  0.80240  0.13440  Biso   1.000  C
  C86      1.0000 0.19560  0.36840  0.56790  Biso   1.000  C
  C87      1.0000 0.06630  0.36630  0.69800  Biso   1.000  C
  C88      1.0000 0.19660  0.36980  0.86440  Biso   1.000  C
  C89      1.0000 0.06930  0.36690  0.86840  Biso   1.000  C
  C90      1.0000 0.19760  0.06920  0.86560  Biso   1.000  C
  C91      1.0000 0.36840  0.19560  0.56790  Biso   1.000  C
  C92      1.0000 0.36630  0.06630  0.69800  Biso   1.000  C
  C93      1.0000 0.36980  0.19660  0.86440  Biso   1.000  C
  C94      1.0000 0.36690  0.06930  0.86840  Biso   1.000  C
  C95      1.0000 0.06920  0.19760  0.86560  Biso   1.000  C
  C96      1.0000 0.80440  0.63160  0.43210  Biso   1.000  C
  C97      1.0000 0.93370  0.63370  0.30200  Biso   1.000  C
  C98      1.0000 0.80340  0.63020  0.13560  Biso   1.000  C
  C99      1.0000 0.93070  0.63310  0.13160  Biso   1.000  C
  C100     1.0000 0.80240  0.93080  0.13440  Biso   1.000  C
  C101     1.0000 0.75020  0.75020  0.25030  Biso   1.000  C
  C102     1.0000 0.63260  0.63260  0.43140  Biso   1.000  C
  C103     1.0000 0.63030  0.63030  0.31000  Biso   1.000  C
  C104     1.0000 0.24980  0.24980  0.74970  Biso   1.000  C
  C105     1.0000 0.36740  0.36740  0.56860  Biso   1.000  C
  C106     1.0000 0.36970  0.36970  0.69000  Biso   1.000  C
  O1       1.0000 0.42679  0.09307  0.58738  Biso   1.000  O
  O2       1.0000 0.83931  0.68047  1.00000  Biso   1.000  O
  O3       1.0000 0.83931  0.50611  1.00000  Biso   1.000  O
  O4       1.0000 0.42678  0.91871  0.58738  Biso   1.000  O
  O5       1.0000 0.42652  0.09326  0.41289  Biso   1.000  O
  O6       1.0000 0.25208  0.09314  0.58759  Biso   1.000  O
  O7       1.0000 0.83958  0.50592  0.17449  Biso   1.000  O
  O8       1.0000 0.01402  0.50604  0.99979  Biso   1.000  O
  O9       1.0000 0.58837  0.73579  0.44599  Biso   1.000  O
  O10      1.0000 0.58304  0.95189  0.23209  Biso   1.000  O
  O11      1.0000 0.28750  0.73779  0.74849  Biso   1.000  O
  O12      1.0000 0.06639  0.95309  0.75379  Biso   1.000  O
  O13      1.0000 0.59009  0.95249  0.74669  Biso   1.000  O
  O14      1.0000 0.67773  0.34339  0.14139  Biso   1.000  O
  O15      1.0000 0.68306  0.34029  0.35529  Biso   1.000  O
  O16      1.0000 0.97860  0.34699  0.83889  Biso   1.000  O
  O17      1.0000 0.19970  0.34649  0.83359  Biso   1.000  O
  O18      1.0000 0.67599  0.86249  0.84069  Biso   1.000  O
  O19      1.0000 0.67773  0.86339  0.14139  Biso   1.000  O
  O20      1.0000 0.68306  0.64729  0.35529  Biso   1.000  O
  O21      1.0000 0.97859  0.86139  0.83889  Biso   1.000  O
  O22      1.0000 0.19971  0.64609  0.83359  Biso   1.000  O
  O23      1.0000 0.67601  0.64669  0.84069  Biso   1.000  O
  O24      1.0000 0.58836  0.25579  0.44599  Biso   1.000  O
  O25      1.0000 0.58304  0.25889  0.23209  Biso   1.000  O
  O26      1.0000 0.28750  0.25219  0.74849  Biso   1.000  O
  O27      1.0000 0.06640  0.25269  0.75379  Biso   1.000  O
  O28      1.0000 0.59010  0.73669  0.74669  Biso   1.000  O
  O29      1.0000 0.07026  0.25449  0.44669  Biso   1.000  O
  O30      1.0000 0.28334  0.25719  0.22819  Biso   1.000  O
  O31      1.0000 0.19583  0.34469  0.14069  Biso   1.000  O
  O32      1.0000 0.98276  0.34199  0.35919  Biso   1.000  O
  O33      1.0000 0.52186  0.90899  0.40729  Biso   1.000  O
  O34      1.0000 0.58045  0.85199  0.34689  Biso   1.000  O
  O35      1.0000 0.60727  0.76229  0.38369  Biso   1.000  O
  O36      1.0000 0.60404  0.88969  0.25769  Biso   1.000  O
  O37      1.0000 0.24448  0.91019  0.68389  Biso   1.000  O
  O38      1.0000 0.18739  0.85449  0.74079  Biso   1.000  O
  O39      1.0000 0.22541  0.76349  0.76599  Biso   1.000  O
  O40      1.0000 0.09399  0.89109  0.76939  Biso   1.000  O
  O41      1.0000 0.60639  0.89039  0.76619  Biso   1.000  O
  O42      1.0000 0.74424  0.41139  0.18009  Biso   1.000  O
  O43      1.0000 0.68564  0.35259  0.24049  Biso   1.000  O
  O44      1.0000 0.65884  0.32649  0.20369  Biso   1.000  O
  O45      1.0000 0.66205  0.32469  0.32969  Biso   1.000  O
  O46      1.0000 0.02161  0.41179  0.90349  Biso   1.000  O
  O47      1.0000 0.07870  0.35589  0.84659  Biso   1.000  O
  O48      1.0000 0.04070  0.32809  0.82139  Biso   1.000  O
  O49      1.0000 0.17210  0.32769  0.81799  Biso   1.000  O
  O50      1.0000 0.65969  0.83619  0.82119  Biso   1.000  O
  O51      1.0000 0.74424  0.69019  0.18009  Biso   1.000  O
  O52      1.0000 0.68565  0.74719  0.24049  Biso   1.000  O
  O53      1.0000 0.65883  0.83689  0.20369  Biso   1.000  O
  O54      1.0000 0.66206  0.70949  0.32969  Biso   1.000  O
  O55      1.0000 0.02161  0.68899  0.90349  Biso   1.000  O
  O56      1.0000 0.07871  0.74469  0.84659  Biso   1.000  O
  O57      1.0000 0.04069  0.83569  0.82139  Biso   1.000  O
  O58      1.0000 0.17210  0.70809  0.81799  Biso   1.000  O
  O59      1.0000 0.65971  0.70879  0.82119  Biso   1.000  O
  O60      1.0000 0.52186  0.18779  0.40729  Biso   1.000  O
  O61      1.0000 0.58045  0.24659  0.34689  Biso   1.000  O
  O62      1.0000 0.60726  0.27269  0.38369  Biso   1.000  O
  O63      1.0000 0.60404  0.27449  0.25769  Biso   1.000  O
  O64      1.0000 0.24449  0.18739  0.68389  Biso   1.000  O
  O65      1.0000 0.18740  0.24329  0.74079  Biso   1.000  O
  O66      1.0000 0.22540  0.27109  0.76599  Biso   1.000  O
  O67      1.0000 0.09400  0.27149  0.76939  Biso   1.000  O
  O68      1.0000 0.60641  0.76299  0.76619  Biso   1.000  O
  O69      1.0000 0.24626  0.18949  0.40069  Biso   1.000  O
  O70      1.0000 0.18705  0.24559  0.34769  Biso   1.000  O
  O71      1.0000 0.09686  0.27219  0.38469  Biso   1.000  O
  O72      1.0000 0.22104  0.27459  0.25569  Biso   1.000  O
  O73      1.0000 0.52108  0.91309  0.67869  Biso   1.000  O
  O74      1.0000 0.57949  0.85289  0.74069  Biso   1.000  O
  O75      1.0000 0.01984  0.40969  0.18669  Biso   1.000  O
  O76      1.0000 0.07904  0.35359  0.23969  Biso   1.000  O
  O77      1.0000 0.16924  0.32699  0.20269  Biso   1.000  O
  O78      1.0000 0.04505  0.32459  0.33169  Biso   1.000  O
  O79      1.0000 0.74501  0.68609  0.90869  Biso   1.000  O
  O80      1.0000 0.68661  0.74629  0.84669  Biso   1.000  O
  O81      1.0000 0.49975  0.99469  0.36379  Biso   1.000  O
  O82      1.0000 0.50216  0.86849  0.48999  Biso   1.000  O
  O83      1.0000 0.20358  0.99579  0.65859  Biso   1.000  O
  O84      1.0000 0.32878  0.86999  0.66139  Biso   1.000  O
  O85      1.0000 0.50008  0.99609  0.65909  Biso   1.000  O
  O86      1.0000 0.76634  0.43149  0.22359  Biso   1.000  O
  O87      1.0000 0.76393  0.43389  0.09739  Biso   1.000  O
  O88      1.0000 0.06251  0.43119  0.92879  Biso   1.000  O
  O89      1.0000 0.93731  0.43339  0.92599  Biso   1.000  O
  O90      1.0000 0.76602  0.72849  0.92829  Biso   1.000  O
  O91      1.0000 0.76635  0.60449  0.22359  Biso   1.000  O
  O92      1.0000 0.76393  0.73069  0.09739  Biso   1.000  O
  O93      1.0000 0.06251  0.60339  0.92879  Biso   1.000  O
  O94      1.0000 0.93732  0.72919  0.92599  Biso   1.000  O
  O95      1.0000 0.76601  0.60309  0.92829  Biso   1.000  O
  O96      1.0000 0.49975  0.16769  0.36379  Biso   1.000  O
  O97      1.0000 0.50217  0.16529  0.48999  Biso   1.000  O
  O98      1.0000 0.20359  0.16799  0.65859  Biso   1.000  O
  O99      1.0000 0.32879  0.16579  0.66139  Biso   1.000  O
  O100     1.0000 0.50008  0.87069  0.65909  Biso   1.000  O
  O101     1.0000 0.38307  0.04969  0.54349  Biso   1.000  O
  O102     1.0000 0.32855  0.16629  0.36479  Biso   1.000  O
  O103     1.0000 0.20487  0.16789  0.48529  Biso   1.000  O
  O104     1.0000 0.88303  0.54949  0.04389  Biso   1.000  O
  O105     1.0000 0.93754  0.43289  0.22259  Biso   1.000  O
  O106     1.0000 0.06123  0.43129  0.10209  Biso   1.000  O
