data_image0
_cell_length_a       18.2519
_cell_length_b       18.2519
_cell_length_c       18.252
_cell_angle_alpha    60.0037
_cell_angle_beta     60.0037
_cell_angle_gamma    60.0005

_symmetry_space_group_name_H-M    "P 1"
_symmetry_int_tables_number       1

loop_
  _symmetry_equiv_pos_as_xyz
  'x, y, z'

loop_
  _atom_site_label
  _atom_site_occupancy
  _atom_site_fract_x
  _atom_site_fract_y
  _atom_site_fract_z
  _atom_site_thermal_displace_type
  _atom_site_B_iso_or_equiv
  _atom_site_type_symbol
  C1       1.0000 0.88127  0.70639  0.20624  Biso   1.000  C
  C2       1.0000 0.29361  0.11873  0.79376  Biso   1.000  C
  C3       1.0000 0.11873  0.29361  0.79376  Biso   1.000  C
  C4       1.0000 0.70639  0.88127  0.20624  Biso   1.000  C
  C5       1.0000 0.70606  0.70606  0.38133  Biso   1.000  C
  C6       1.0000 0.70624  0.70624  0.20614  Biso   1.000  C
  C7       1.0000 0.29394  0.29394  0.61867  Biso   1.000  C
  C8       1.0000 0.29376  0.29376  0.79386  Biso   1.000  C
  C9       1.0000 0.54630  0.06090  0.34980  Biso   1.000  C
  C10      1.0000 0.54310  0.84610  0.56150  Biso   1.000  C
  C11      1.0000 0.54720  0.05980  0.04610  Biso   1.000  C
  C12      1.0000 0.54320  0.84860  0.04380  Biso   1.000  C
  C13      1.0000 0.06260  0.84660  0.04860  Biso   1.000  C
  C14      1.0000 0.93910  0.45370  0.65020  Biso   1.000  C
  C15      1.0000 0.15390  0.45690  0.43850  Biso   1.000  C
  C16      1.0000 0.94020  0.45280  0.95390  Biso   1.000  C
  C17      1.0000 0.15140  0.45680  0.95620  Biso   1.000  C
  C18      1.0000 0.15340  0.93740  0.95140  Biso   1.000  C
  C19      1.0000 0.45370  0.93910  0.65020  Biso   1.000  C
  C20      1.0000 0.45690  0.15390  0.43850  Biso   1.000  C
  C21      1.0000 0.45280  0.94020  0.95390  Biso   1.000  C
  C22      1.0000 0.45680  0.15140  0.95620  Biso   1.000  C
  C23      1.0000 0.93740  0.15340  0.95140  Biso   1.000  C
  C24      1.0000 0.06090  0.54630  0.34980  Biso   1.000  C
  C25      1.0000 0.84610  0.54310  0.56150  Biso   1.000  C
  C26      1.0000 0.05980  0.54720  0.04610  Biso   1.000  C
  C27      1.0000 0.84860  0.54320  0.04380  Biso   1.000  C
  C28      1.0000 0.84660  0.06260  0.04860  Biso   1.000  C
  C29      1.0000 0.54440  0.54440  0.34770  Biso   1.000  C
  C30      1.0000 0.54330  0.54330  0.56380  Biso   1.000  C
  C31      1.0000 0.45560  0.45560  0.65230  Biso   1.000  C
  C32      1.0000 0.45670  0.45670  0.43620  Biso   1.000  C
  C33      1.0000 0.61220  0.88980  0.38620  Biso   1.000  C
  C34      1.0000 0.55250  0.94790  0.44740  Biso   1.000  C
  C35      1.0000 0.52760  0.03520  0.41200  Biso   1.000  C
  C36      1.0000 0.52640  0.90820  0.53550  Biso   1.000  C
  C37      1.0000 0.61340  0.88660  0.10910  Biso   1.000  C
  C38      1.0000 0.55610  0.94510  0.05380  Biso   1.000  C
  C39      1.0000 0.52920  0.03360  0.02810  Biso   1.000  C
  C40      1.0000 0.52640  0.91060  0.02630  Biso   1.000  C
  C41      1.0000 0.03650  0.90870  0.02850  Biso   1.000  C
  C42      1.0000 0.11020  0.38780  0.61380  Biso   1.000  C
  C43      1.0000 0.05210  0.44750  0.55260  Biso   1.000  C
  C44      1.0000 0.96480  0.47240  0.58800  Biso   1.000  C
  C45      1.0000 0.09180  0.47360  0.46450  Biso   1.000  C
  C46      1.0000 0.11340  0.38660  0.89090  Biso   1.000  C
  C47      1.0000 0.05490  0.44390  0.94620  Biso   1.000  C
  C48      1.0000 0.96640  0.47080  0.97190  Biso   1.000  C
  C49      1.0000 0.08940  0.47360  0.97370  Biso   1.000  C
  C50      1.0000 0.09130  0.96350  0.97150  Biso   1.000  C
  C51      1.0000 0.38780  0.11020  0.61380  Biso   1.000  C
  C52      1.0000 0.44750  0.05210  0.55260  Biso   1.000  C
  C53      1.0000 0.47240  0.96480  0.58800  Biso   1.000  C
  C54      1.0000 0.47360  0.09180  0.46450  Biso   1.000  C
  C55      1.0000 0.38660  0.11340  0.89090  Biso   1.000  C
  C56      1.0000 0.44390  0.05490  0.94620  Biso   1.000  C
  C57      1.0000 0.47080  0.96640  0.97190  Biso   1.000  C
  C58      1.0000 0.47360  0.08940  0.97370  Biso   1.000  C
  C59      1.0000 0.96350  0.09130  0.97150  Biso   1.000  C
  C60      1.0000 0.88980  0.61220  0.38620  Biso   1.000  C
  C61      1.0000 0.94790  0.55250  0.44740  Biso   1.000  C
  C62      1.0000 0.03520  0.52760  0.41200  Biso   1.000  C
  C63      1.0000 0.90820  0.52640  0.53550  Biso   1.000  C
  C64      1.0000 0.88660  0.61340  0.10910  Biso   1.000  C
  C65      1.0000 0.94510  0.55610  0.05380  Biso   1.000  C
  C66      1.0000 0.03360  0.52920  0.02810  Biso   1.000  C
  C67      1.0000 0.91060  0.52640  0.02630  Biso   1.000  C
  C68      1.0000 0.90870  0.03650  0.02850  Biso   1.000  C
  C69      1.0000 0.61140  0.61140  0.39300  Biso   1.000  C
  C70      1.0000 0.55420  0.55420  0.44520  Biso   1.000  C
  C71      1.0000 0.52700  0.52700  0.40970  Biso   1.000  C
  C72      1.0000 0.52580  0.52580  0.53670  Biso   1.000  C
  C73      1.0000 0.88480  0.88480  0.11710  Biso   1.000  C
  C74      1.0000 0.94650  0.94650  0.05370  Biso   1.000  C
  C75      1.0000 0.38860  0.38860  0.60700  Biso   1.000  C
  C76      1.0000 0.44580  0.44580  0.55480  Biso   1.000  C
  C77      1.0000 0.47300  0.47300  0.59030  Biso   1.000  C
  C78      1.0000 0.47420  0.47420  0.46330  Biso   1.000  C
  C79      1.0000 0.11520  0.11520  0.88290  Biso   1.000  C
  C80      1.0000 0.05350  0.05350  0.94630  Biso   1.000  C
  C81      1.0000 0.63160  0.80440  0.43210  Biso   1.000  C
  C82      1.0000 0.63370  0.93370  0.30200  Biso   1.000  C
  C83      1.0000 0.63020  0.80340  0.13560  Biso   1.000  C
  C84      1.0000 0.63310  0.93070  0.13160  Biso   1.000  C
  C85      1.0000 0.93080  0.80240  0.13440  Biso   1.000  C
  C86      1.0000 0.19560  0.36840  0.56790  Biso   1.000  C
  C87      1.0000 0.06630  0.36630  0.69800  Biso   1.000  C
  C88      1.0000 0.19660  0.36980  0.86440  Biso   1.000  C
  C89      1.0000 0.06930  0.36690  0.86840  Biso   1.000  C
  C90      1.0000 0.19760  0.06920  0.86560  Biso   1.000  C
  C91      1.0000 0.36840  0.19560  0.56790  Biso   1.000  C
  C92      1.0000 0.36630  0.06630  0.69800  Biso   1.000  C
  C93      1.0000 0.36980  0.19660  0.86440  Biso   1.000  C
  C94      1.0000 0.36690  0.06930  0.86840  Biso   1.000  C
  C95      1.0000 0.06920  0.19760  0.86560  Biso   1.000  C
  C96      1.0000 0.80440  0.63160  0.43210  Biso   1.000  C
  C97      1.0000 0.93370  0.63370  0.30200  Biso   1.000  C
  C98      1.0000 0.80340  0.63020  0.13560  Biso   1.000  C
  C99      1.0000 0.93070  0.63310  0.13160  Biso   1.000  C
  C100     1.0000 0.80240  0.93080  0.13440  Biso   1.000  C
  C101     1.0000 0.75020  0.75020  0.25030  Biso   1.000  C
  C102     1.0000 0.63260  0.63260  0.43140  Biso   1.000  C
  C103     1.0000 0.63030  0.63030  0.31000  Biso   1.000  C
  C104     1.0000 0.24980  0.24980  0.74970  Biso   1.000  C
  C105     1.0000 0.36740  0.36740  0.56860  Biso   1.000  C
  C106     1.0000 0.36970  0.36970  0.69000  Biso   1.000  C
  O1       1.0000 0.40952  0.26421  0.43204  Biso   1.000  O
  O2       1.0000 0.58410  0.26420  0.25748  Biso   1.000  O
  O3       1.0000 0.40951  0.26420  0.25748  Biso   1.000  O
  O4       1.0000 0.40951  0.43879  0.25748  Biso   1.000  O
  O5       1.0000 0.00420  0.84899  0.66781  Biso   1.000  O
  O6       1.0000 0.82962  0.84900  0.84237  Biso   1.000  O
  O7       1.0000 0.00421  0.67441  0.84237  Biso   1.000  O
  O8       1.0000 0.00421  0.84900  0.84237  Biso   1.000  O
  O9       1.0000 0.55375  0.10160  0.61305  Biso   1.000  O
  O10      1.0000 0.76992  0.10164  0.39677  Biso   1.000  O
  O11      1.0000 0.25189  0.40351  0.09494  Biso   1.000  O
  O12      1.0000 0.25188  0.61966  0.09494  Biso   1.000  O
  O13      1.0000 0.25189  0.61967  0.39677  Biso   1.000  O
  O14      1.0000 0.25186  0.40348  0.61305  Biso   1.000  O
  O15      1.0000 0.55377  0.10162  0.09494  Biso   1.000  O
  O16      1.0000 0.76990  0.10162  0.09494  Biso   1.000  O
  O17      1.0000 0.76991  0.40351  0.09494  Biso   1.000  O
  O18      1.0000 0.55377  0.61966  0.09494  Biso   1.000  O
  O19      1.0000 0.25190  0.10164  0.39677  Biso   1.000  O
  O20      1.0000 0.25185  0.10160  0.61305  Biso   1.000  O
  O21      1.0000 0.85997  0.01160  0.48680  Biso   1.000  O
  O22      1.0000 0.64379  0.01156  0.70308  Biso   1.000  O
  O23      1.0000 0.16184  0.49354  0.00491  Biso   1.000  O
  O24      1.0000 0.16183  0.70969  0.00491  Biso   1.000  O
  O25      1.0000 0.16181  0.01156  0.70308  Biso   1.000  O
  O26      1.0000 0.16186  0.01160  0.48680  Biso   1.000  O
  O27      1.0000 0.85995  0.49354  0.00491  Biso   1.000  O
  O28      1.0000 0.64381  0.70969  0.00491  Biso   1.000  O
  O29      1.0000 0.64381  0.01158  0.00491  Biso   1.000  O
  O30      1.0000 0.85994  0.01158  0.00491  Biso   1.000  O
  O31      1.0000 0.16182  0.49353  0.70308  Biso   1.000  O
  O32      1.0000 0.16186  0.70972  0.48680  Biso   1.000  O
  O33      1.0000 0.61739  0.08332  0.58597  Biso   1.000  O
  O34      1.0000 0.74284  0.08336  0.46040  Biso   1.000  O
  O35      1.0000 0.23361  0.46715  0.07666  Biso   1.000  O
  O36      1.0000 0.23360  0.59257  0.07666  Biso   1.000  O
  O37      1.0000 0.23362  0.59259  0.46040  Biso   1.000  O
  O38      1.0000 0.23358  0.46712  0.58597  Biso   1.000  O
  O39      1.0000 0.61742  0.08334  0.07666  Biso   1.000  O
  O40      1.0000 0.74282  0.08334  0.07666  Biso   1.000  O
  O41      1.0000 0.74282  0.46715  0.07666  Biso   1.000  O
  O42      1.0000 0.61741  0.59257  0.07666  Biso   1.000  O
  O43      1.0000 0.23362  0.08336  0.46040  Biso   1.000  O
  O44      1.0000 0.23357  0.08332  0.58597  Biso   1.000  O
  O45      1.0000 0.79633  0.02988  0.51388  Biso   1.000  O
  O46      1.0000 0.67087  0.02984  0.63944  Biso   1.000  O
  O47      1.0000 0.18012  0.52063  0.02319  Biso   1.000  O
  O48      1.0000 0.18011  0.64605  0.02319  Biso   1.000  O
  O49      1.0000 0.18009  0.02984  0.63944  Biso   1.000  O
  O50      1.0000 0.18014  0.02988  0.51388  Biso   1.000  O
  O51      1.0000 0.79630  0.52063  0.02319  Biso   1.000  O
  O52      1.0000 0.67089  0.64605  0.02319  Biso   1.000  O
  O53      1.0000 0.67090  0.02986  0.02319  Biso   1.000  O
  O54      1.0000 0.79630  0.02986  0.02319  Biso   1.000  O
  O55      1.0000 0.18010  0.52061  0.63944  Biso   1.000  O
  O56      1.0000 0.18014  0.64608  0.51388  Biso   1.000  O
  O57      1.0000 0.59225  0.16877  0.44018  Biso   1.000  O
  O58      1.0000 0.65051  0.11052  0.49842  Biso   1.000  O
  O59      1.0000 0.31406  0.44692  0.16206  Biso   1.000  O
  O60      1.0000 0.25580  0.50518  0.10381  Biso   1.000  O
  O61      1.0000 0.31408  0.44694  0.44018  Biso   1.000  O
  O62      1.0000 0.25582  0.50520  0.49842  Biso   1.000  O
  O63      1.0000 0.59223  0.16876  0.16206  Biso   1.000  O
  O64      1.0000 0.65048  0.11050  0.10381  Biso   1.000  O
  O65      1.0000 0.59223  0.44692  0.16206  Biso   1.000  O
  O66      1.0000 0.65049  0.50517  0.10381  Biso   1.000  O
  O67      1.0000 0.31407  0.16877  0.44018  Biso   1.000  O
  O68      1.0000 0.25582  0.11052  0.49842  Biso   1.000  O
  O69      1.0000 0.82147  0.94443  0.65967  Biso   1.000  O
  O70      1.0000 0.76321  0.00268  0.60142  Biso   1.000  O
  O71      1.0000 0.09965  0.66628  0.93779  Biso   1.000  O
  O72      1.0000 0.15791  0.60802  0.99604  Biso   1.000  O
  O73      1.0000 0.09964  0.94443  0.65967  Biso   1.000  O
  O74      1.0000 0.15790  0.00268  0.60142  Biso   1.000  O
  O75      1.0000 0.82148  0.66628  0.93779  Biso   1.000  O
  O76      1.0000 0.76323  0.60802  0.99604  Biso   1.000  O
  O77      1.0000 0.82148  0.94444  0.93779  Biso   1.000  O
  O78      1.0000 0.76323  0.00270  0.99604  Biso   1.000  O
  O79      1.0000 0.09964  0.66626  0.65967  Biso   1.000  O
  O80      1.0000 0.15789  0.60800  0.60142  Biso   1.000  O
  O81      1.0000 0.45315  0.30785  0.30112  Biso   1.000  O
  O82      1.0000 0.96056  0.80535  0.79873  Biso   1.000  O
  O83      1.0000 0.50851  0.19115  0.47915  Biso   1.000  O
  O84      1.0000 0.63122  0.19115  0.35645  Biso   1.000  O
  O85      1.0000 0.33644  0.36318  0.18443  Biso   1.000  O
  O86      1.0000 0.33644  0.48590  0.18443  Biso   1.000  O
  O87      1.0000 0.33645  0.48591  0.35645  Biso   1.000  O
  O88      1.0000 0.33646  0.36320  0.47915  Biso   1.000  O
  O89      1.0000 0.50849  0.19114  0.18443  Biso   1.000  O
  O90      1.0000 0.63121  0.19114  0.18443  Biso   1.000  O
  O91      1.0000 0.63122  0.36318  0.18443  Biso   1.000  O
  O92      1.0000 0.50849  0.48590  0.18443  Biso   1.000  O
  O93      1.0000 0.33645  0.19115  0.35645  Biso   1.000  O
  O94      1.0000 0.33646  0.19115  0.47915  Biso   1.000  O
  O95      1.0000 0.90521  0.92205  0.62070  Biso   1.000  O
  O96      1.0000 0.78249  0.92205  0.74340  Biso   1.000  O
  O97      1.0000 0.07727  0.62729  0.91542  Biso   1.000  O
  O98      1.0000 0.07727  0.75002  0.91542  Biso   1.000  O
  O99      1.0000 0.07727  0.92205  0.74340  Biso   1.000  O
  O100     1.0000 0.07726  0.92205  0.62070  Biso   1.000  O
  O101     1.0000 0.90522  0.62729  0.91542  Biso   1.000  O
  O102     1.0000 0.78250  0.75002  0.91542  Biso   1.000  O
  O103     1.0000 0.78250  0.92206  0.91542  Biso   1.000  O
  O104     1.0000 0.90523  0.92206  0.91542  Biso   1.000  O
  O105     1.0000 0.07726  0.62728  0.74340  Biso   1.000  O
  O106     1.0000 0.07726  0.75000  0.62070  Biso   1.000  O
