data_image0
_cell_length_a       18.2519
_cell_length_b       18.2519
_cell_length_c       18.252
_cell_angle_alpha    60.0037
_cell_angle_beta     60.0037
_cell_angle_gamma    60.0005

_symmetry_space_group_name_H-M    "P 1"
_symmetry_int_tables_number       1

loop_
  _symmetry_equiv_pos_as_xyz
  'x, y, z'

loop_
  _atom_site_label
  _atom_site_occupancy
  _atom_site_fract_x
  _atom_site_fract_y
  _atom_site_fract_z
  _atom_site_thermal_displace_type
  _atom_site_B_iso_or_equiv
  _atom_site_type_symbol
  C1       1.0000 0.88127  0.70639  0.20624  Biso   1.000  C
  C2       1.0000 0.29361  0.11873  0.79376  Biso   1.000  C
  C3       1.0000 0.11873  0.29361  0.79376  Biso   1.000  C
  C4       1.0000 0.70639  0.88127  0.20624  Biso   1.000  C
  C5       1.0000 0.70606  0.70606  0.38133  Biso   1.000  C
  C6       1.0000 0.70624  0.70624  0.20614  Biso   1.000  C
  C7       1.0000 0.29394  0.29394  0.61867  Biso   1.000  C
  C8       1.0000 0.29376  0.29376  0.79386  Biso   1.000  C
  C9       1.0000 0.54630  0.06090  0.34980  Biso   1.000  C
  C10      1.0000 0.54310  0.84610  0.56150  Biso   1.000  C
  C11      1.0000 0.54720  0.05980  0.04610  Biso   1.000  C
  C12      1.0000 0.54320  0.84860  0.04380  Biso   1.000  C
  C13      1.0000 0.06260  0.84660  0.04860  Biso   1.000  C
  C14      1.0000 0.93910  0.45370  0.65020  Biso   1.000  C
  C15      1.0000 0.15390  0.45690  0.43850  Biso   1.000  C
  C16      1.0000 0.94020  0.45280  0.95390  Biso   1.000  C
  C17      1.0000 0.15140  0.45680  0.95620  Biso   1.000  C
  C18      1.0000 0.15340  0.93740  0.95140  Biso   1.000  C
  C19      1.0000 0.45370  0.93910  0.65020  Biso   1.000  C
  C20      1.0000 0.45690  0.15390  0.43850  Biso   1.000  C
  C21      1.0000 0.45280  0.94020  0.95390  Biso   1.000  C
  C22      1.0000 0.45680  0.15140  0.95620  Biso   1.000  C
  C23      1.0000 0.93740  0.15340  0.95140  Biso   1.000  C
  C24      1.0000 0.06090  0.54630  0.34980  Biso   1.000  C
  C25      1.0000 0.84610  0.54310  0.56150  Biso   1.000  C
  C26      1.0000 0.05980  0.54720  0.04610  Biso   1.000  C
  C27      1.0000 0.84860  0.54320  0.04380  Biso   1.000  C
  C28      1.0000 0.84660  0.06260  0.04860  Biso   1.000  C
  C29      1.0000 0.54440  0.54440  0.34770  Biso   1.000  C
  C30      1.0000 0.54330  0.54330  0.56380  Biso   1.000  C
  C31      1.0000 0.45560  0.45560  0.65230  Biso   1.000  C
  C32      1.0000 0.45670  0.45670  0.43620  Biso   1.000  C
  C33      1.0000 0.61220  0.88980  0.38620  Biso   1.000  C
  C34      1.0000 0.55250  0.94790  0.44740  Biso   1.000  C
  C35      1.0000 0.52760  0.03520  0.41200  Biso   1.000  C
  C36      1.0000 0.52640  0.90820  0.53550  Biso   1.000  C
  C37      1.0000 0.61340  0.88660  0.10910  Biso   1.000  C
  C38      1.0000 0.55610  0.94510  0.05380  Biso   1.000  C
  C39      1.0000 0.52920  0.03360  0.02810  Biso   1.000  C
  C40      1.0000 0.52640  0.91060  0.02630  Biso   1.000  C
  C41      1.0000 0.03650  0.90870  0.02850  Biso   1.000  C
  C42      1.0000 0.11020  0.38780  0.61380  Biso   1.000  C
  C43      1.0000 0.05210  0.44750  0.55260  Biso   1.000  C
  C44      1.0000 0.96480  0.47240  0.58800  Biso   1.000  C
  C45      1.0000 0.09180  0.47360  0.46450  Biso   1.000  C
  C46      1.0000 0.11340  0.38660  0.89090  Biso   1.000  C
  C47      1.0000 0.05490  0.44390  0.94620  Biso   1.000  C
  C48      1.0000 0.96640  0.47080  0.97190  Biso   1.000  C
  C49      1.0000 0.08940  0.47360  0.97370  Biso   1.000  C
  C50      1.0000 0.09130  0.96350  0.97150  Biso   1.000  C
  C51      1.0000 0.38780  0.11020  0.61380  Biso   1.000  C
  C52      1.0000 0.44750  0.05210  0.55260  Biso   1.000  C
  C53      1.0000 0.47240  0.96480  0.58800  Biso   1.000  C
  C54      1.0000 0.47360  0.09180  0.46450  Biso   1.000  C
  C55      1.0000 0.38660  0.11340  0.89090  Biso   1.000  C
  C56      1.0000 0.44390  0.05490  0.94620  Biso   1.000  C
  C57      1.0000 0.47080  0.96640  0.97190  Biso   1.000  C
  C58      1.0000 0.47360  0.08940  0.97370  Biso   1.000  C
  C59      1.0000 0.96350  0.09130  0.97150  Biso   1.000  C
  C60      1.0000 0.88980  0.61220  0.38620  Biso   1.000  C
  C61      1.0000 0.94790  0.55250  0.44740  Biso   1.000  C
  C62      1.0000 0.03520  0.52760  0.41200  Biso   1.000  C
  C63      1.0000 0.90820  0.52640  0.53550  Biso   1.000  C
  C64      1.0000 0.88660  0.61340  0.10910  Biso   1.000  C
  C65      1.0000 0.94510  0.55610  0.05380  Biso   1.000  C
  C66      1.0000 0.03360  0.52920  0.02810  Biso   1.000  C
  C67      1.0000 0.91060  0.52640  0.02630  Biso   1.000  C
  C68      1.0000 0.90870  0.03650  0.02850  Biso   1.000  C
  C69      1.0000 0.61140  0.61140  0.39300  Biso   1.000  C
  C70      1.0000 0.55420  0.55420  0.44520  Biso   1.000  C
  C71      1.0000 0.52700  0.52700  0.40970  Biso   1.000  C
  C72      1.0000 0.52580  0.52580  0.53670  Biso   1.000  C
  C73      1.0000 0.88480  0.88480  0.11710  Biso   1.000  C
  C74      1.0000 0.94650  0.94650  0.05370  Biso   1.000  C
  C75      1.0000 0.38860  0.38860  0.60700  Biso   1.000  C
  C76      1.0000 0.44580  0.44580  0.55480  Biso   1.000  C
  C77      1.0000 0.47300  0.47300  0.59030  Biso   1.000  C
  C78      1.0000 0.47420  0.47420  0.46330  Biso   1.000  C
  C79      1.0000 0.11520  0.11520  0.88290  Biso   1.000  C
  C80      1.0000 0.05350  0.05350  0.94630  Biso   1.000  C
  C81      1.0000 0.63160  0.80440  0.43210  Biso   1.000  C
  C82      1.0000 0.63370  0.93370  0.30200  Biso   1.000  C
  C83      1.0000 0.63020  0.80340  0.13560  Biso   1.000  C
  C84      1.0000 0.63310  0.93070  0.13160  Biso   1.000  C
  C85      1.0000 0.93080  0.80240  0.13440  Biso   1.000  C
  C86      1.0000 0.19560  0.36840  0.56790  Biso   1.000  C
  C87      1.0000 0.06630  0.36630  0.69800  Biso   1.000  C
  C88      1.0000 0.19660  0.36980  0.86440  Biso   1.000  C
  C89      1.0000 0.06930  0.36690  0.86840  Biso   1.000  C
  C90      1.0000 0.19760  0.06920  0.86560  Biso   1.000  C
  C91      1.0000 0.36840  0.19560  0.56790  Biso   1.000  C
  C92      1.0000 0.36630  0.06630  0.69800  Biso   1.000  C
  C93      1.0000 0.36980  0.19660  0.86440  Biso   1.000  C
  C94      1.0000 0.36690  0.06930  0.86840  Biso   1.000  C
  C95      1.0000 0.06920  0.19760  0.86560  Biso   1.000  C
  C96      1.0000 0.80440  0.63160  0.43210  Biso   1.000  C
  C97      1.0000 0.93370  0.63370  0.30200  Biso   1.000  C
  C98      1.0000 0.80340  0.63020  0.13560  Biso   1.000  C
  C99      1.0000 0.93070  0.63310  0.13160  Biso   1.000  C
  C100     1.0000 0.80240  0.93080  0.13440  Biso   1.000  C
  C101     1.0000 0.75020  0.75020  0.25030  Biso   1.000  C
  C102     1.0000 0.63260  0.63260  0.43140  Biso   1.000  C
  C103     1.0000 0.63030  0.63030  0.31000  Biso   1.000  C
  C104     1.0000 0.24980  0.24980  0.74970  Biso   1.000  C
  C105     1.0000 0.36740  0.36740  0.56860  Biso   1.000  C
  C106     1.0000 0.36970  0.36970  0.69000  Biso   1.000  C
  O1       1.0000 0.41005  0.26412  0.43205  Biso   1.000  O
  O2       1.0000 0.58471  0.26412  0.25742  Biso   1.000  O
  O3       1.0000 0.41004  0.26411  0.25743  Biso   1.000  O
  O4       1.0000 0.41006  0.43877  0.25742  Biso   1.000  O
  O5       1.0000 0.00564  0.84865  0.66743  Biso   1.000  O
  O6       1.0000 0.83098  0.84866  0.84207  Biso   1.000  O
  O7       1.0000 0.00565  0.67400  0.84207  Biso   1.000  O
  O8       1.0000 0.00565  0.84867  0.84207  Biso   1.000  O
  O9       1.0000 0.55463  0.10151  0.61272  Biso   1.000  O
  O10      1.0000 0.77076  0.10155  0.39648  Biso   1.000  O
  O11      1.0000 0.25300  0.40319  0.09488  Biso   1.000  O
  O12      1.0000 0.25300  0.61930  0.09488  Biso   1.000  O
  O13      1.0000 0.25301  0.61931  0.39648  Biso   1.000  O
  O14      1.0000 0.25298  0.40317  0.61272  Biso   1.000  O
  O15      1.0000 0.55466  0.10154  0.09488  Biso   1.000  O
  O16      1.0000 0.77075  0.10154  0.09488  Biso   1.000  O
  O17      1.0000 0.77075  0.40319  0.09488  Biso   1.000  O
  O18      1.0000 0.55466  0.61930  0.09488  Biso   1.000  O
  O19      1.0000 0.25302  0.10155  0.39648  Biso   1.000  O
  O20      1.0000 0.25297  0.10151  0.61272  Biso   1.000  O
  O21      1.0000 0.86107  0.01126  0.48676  Biso   1.000  O
  O22      1.0000 0.64493  0.01122  0.70300  Biso   1.000  O
  O23      1.0000 0.16270  0.49348  0.00460  Biso   1.000  O
  O24      1.0000 0.16269  0.70959  0.00460  Biso   1.000  O
  O25      1.0000 0.16268  0.01122  0.70300  Biso   1.000  O
  O26      1.0000 0.16273  0.01126  0.48676  Biso   1.000  O
  O27      1.0000 0.86104  0.49348  0.00460  Biso   1.000  O
  O28      1.0000 0.64495  0.70959  0.00460  Biso   1.000  O
  O29      1.0000 0.64495  0.01124  0.00460  Biso   1.000  O
  O30      1.0000 0.86104  0.01124  0.00460  Biso   1.000  O
  O31      1.0000 0.16269  0.49346  0.70300  Biso   1.000  O
  O32      1.0000 0.16272  0.70961  0.48676  Biso   1.000  O
  O33      1.0000 0.61832  0.08317  0.58572  Biso   1.000  O
  O34      1.0000 0.74376  0.08322  0.46016  Biso   1.000  O
  O35      1.0000 0.23466  0.46688  0.07654  Biso   1.000  O
  O36      1.0000 0.23465  0.59229  0.07654  Biso   1.000  O
  O37      1.0000 0.23468  0.59231  0.46016  Biso   1.000  O
  O38      1.0000 0.23463  0.46685  0.58572  Biso   1.000  O
  O39      1.0000 0.61835  0.08320  0.07654  Biso   1.000  O
  O40      1.0000 0.74374  0.08320  0.07654  Biso   1.000  O
  O41      1.0000 0.74374  0.46688  0.07654  Biso   1.000  O
  O42      1.0000 0.61834  0.59229  0.07654  Biso   1.000  O
  O43      1.0000 0.23468  0.08322  0.46016  Biso   1.000  O
  O44      1.0000 0.23463  0.08317  0.58572  Biso   1.000  O
  O45      1.0000 0.79738  0.02961  0.51377  Biso   1.000  O
  O46      1.0000 0.67194  0.02956  0.63932  Biso   1.000  O
  O47      1.0000 0.18105  0.52049  0.02294  Biso   1.000  O
  O48      1.0000 0.18104  0.64590  0.02294  Biso   1.000  O
  O49      1.0000 0.18102  0.02956  0.63932  Biso   1.000  O
  O50      1.0000 0.18107  0.02961  0.51377  Biso   1.000  O
  O51      1.0000 0.79735  0.52049  0.02294  Biso   1.000  O
  O52      1.0000 0.67196  0.64590  0.02294  Biso   1.000  O
  O53      1.0000 0.67196  0.02958  0.02294  Biso   1.000  O
  O54      1.0000 0.79735  0.02958  0.02294  Biso   1.000  O
  O55      1.0000 0.18102  0.52047  0.63932  Biso   1.000  O
  O56      1.0000 0.18106  0.64592  0.51377  Biso   1.000  O
  O57      1.0000 0.59292  0.16859  0.44025  Biso   1.000  O
  O58      1.0000 0.65123  0.11029  0.49855  Biso   1.000  O
  O59      1.0000 0.31451  0.44696  0.16191  Biso   1.000  O
  O60      1.0000 0.25620  0.50527  0.10361  Biso   1.000  O
  O61      1.0000 0.31453  0.44698  0.44025  Biso   1.000  O
  O62      1.0000 0.25622  0.50529  0.49855  Biso   1.000  O
  O63      1.0000 0.59290  0.16858  0.16191  Biso   1.000  O
  O64      1.0000 0.65121  0.11027  0.10361  Biso   1.000  O
  O65      1.0000 0.59291  0.44696  0.16191  Biso   1.000  O
  O66      1.0000 0.65121  0.50527  0.10361  Biso   1.000  O
  O67      1.0000 0.31453  0.16859  0.44025  Biso   1.000  O
  O68      1.0000 0.25622  0.11029  0.49855  Biso   1.000  O
  O69      1.0000 0.82278  0.94418  0.65924  Biso   1.000  O
  O70      1.0000 0.76447  0.00249  0.60094  Biso   1.000  O
  O71      1.0000 0.10118  0.66581  0.93758  Biso   1.000  O
  O72      1.0000 0.15950  0.60751  0.99588  Biso   1.000  O
  O73      1.0000 0.10117  0.94418  0.65924  Biso   1.000  O
  O74      1.0000 0.15948  0.00249  0.60094  Biso   1.000  O
  O75      1.0000 0.82279  0.66581  0.93758  Biso   1.000  O
  O76      1.0000 0.76448  0.60751  0.99588  Biso   1.000  O
  O77      1.0000 0.82280  0.94420  0.93758  Biso   1.000  O
  O78      1.0000 0.76449  0.00251  0.99588  Biso   1.000  O
  O79      1.0000 0.10117  0.66580  0.65924  Biso   1.000  O
  O80      1.0000 0.15947  0.60749  0.60094  Biso   1.000  O
  O81      1.0000 0.45372  0.30778  0.30108  Biso   1.000  O
  O82      1.0000 0.96198  0.80500  0.79841  Biso   1.000  O
  O83      1.0000 0.50916  0.19106  0.47907  Biso   1.000  O
  O84      1.0000 0.63175  0.19105  0.35650  Biso   1.000  O
  O85      1.0000 0.33698  0.36321  0.18437  Biso   1.000  O
  O86      1.0000 0.33698  0.48580  0.18437  Biso   1.000  O
  O87      1.0000 0.33699  0.48581  0.35650  Biso   1.000  O
  O88      1.0000 0.33700  0.36322  0.47907  Biso   1.000  O
  O89      1.0000 0.50914  0.19104  0.18437  Biso   1.000  O
  O90      1.0000 0.63174  0.19104  0.18437  Biso   1.000  O
  O91      1.0000 0.63174  0.36321  0.18437  Biso   1.000  O
  O92      1.0000 0.50915  0.48580  0.18437  Biso   1.000  O
  O93      1.0000 0.33699  0.19105  0.35650  Biso   1.000  O
  O94      1.0000 0.33699  0.19106  0.47907  Biso   1.000  O
  O95      1.0000 0.90654  0.92172  0.62041  Biso   1.000  O
  O96      1.0000 0.78395  0.92173  0.74298  Biso   1.000  O
  O97      1.0000 0.07872  0.62698  0.91512  Biso   1.000  O
  O98      1.0000 0.07872  0.74957  0.91512  Biso   1.000  O
  O99      1.0000 0.07871  0.92173  0.74298  Biso   1.000  O
  O100     1.0000 0.07870  0.92172  0.62041  Biso   1.000  O
  O101     1.0000 0.90655  0.62698  0.91512  Biso   1.000  O
  O102     1.0000 0.78396  0.74957  0.91512  Biso   1.000  O
  O103     1.0000 0.78396  0.92173  0.91512  Biso   1.000  O
  O104     1.0000 0.90655  0.92173  0.91512  Biso   1.000  O
  O105     1.0000 0.07871  0.62697  0.74298  Biso   1.000  O
  O106     1.0000 0.07870  0.74956  0.62041  Biso   1.000  O
