data_image0
_cell_length_a       17.3335
_cell_length_b       17.3335
_cell_length_c       23.8297
_cell_angle_alpha    68.6727
_cell_angle_beta     68.6727
_cell_angle_gamma    89.9999

_symmetry_space_group_name_H-M    "P 1"
_symmetry_int_tables_number       1

loop_
  _symmetry_equiv_pos_as_xyz
  'x, y, z'

loop_
  _atom_site_label
  _atom_site_occupancy
  _atom_site_fract_x
  _atom_site_fract_y
  _atom_site_fract_z
  _atom_site_thermal_displace_type
  _atom_site_B_iso_or_equiv
  _atom_site_type_symbol
  C1       1.0000 0.77857  0.02857  0.94286  Biso   1.000  C
  C2       1.0000 0.02857  0.77857  0.44286  Biso   1.000  C
  C3       1.0000 0.75780  0.20820  0.91080  Biso   1.000  C
  C4       1.0000 0.72690  0.31820  0.83800  Biso   1.000  C
  C5       1.0000 0.71110  0.16890  0.74540  Biso   1.000  C
  C6       1.0000 0.74190  0.06200  0.82180  Biso   1.000  C
  C7       1.0000 0.64370  0.34650  0.75400  Biso   1.000  C
  C8       1.0000 0.68590  0.30690  0.70120  Biso   1.000  C
  C9       1.0000 0.81470  0.38630  0.66680  Biso   1.000  C
  C10      1.0000 0.77630  0.42280  0.72240  Biso   1.000  C
  C11      1.0000 0.71740  0.45200  0.61920  Biso   1.000  C
  C12      1.0000 0.68860  0.49420  0.67160  Biso   1.000  C
  C13      1.0000 0.76120  0.63480  0.63760  Biso   1.000  C
  C14      1.0000 0.87000  0.74170  0.56480  Biso   1.000  C
  C15      1.0000 0.98110  0.59610  0.47560  Biso   1.000  C
  C16      1.0000 0.87540  0.48690  0.54620  Biso   1.000  C
  C17      1.0000 0.83140  0.88100  0.91080  Biso   1.000  C
  C18      1.0000 0.93510  0.84380  0.83800  Biso   1.000  C
  C19      1.0000 0.04350  0.08570  0.74540  Biso   1.000  C
  C20      1.0000 0.93630  0.11620  0.82180  Biso   1.000  C
  C21      1.0000 0.10230  0.89950  0.75400  Biso   1.000  C
  C22      1.0000 0.11290  0.99190  0.70120  Biso   1.000  C
  C23      1.0000 0.01850  0.94690  0.66680  Biso   1.000  C
  C24      1.0000 0.00130  0.85480  0.72240  Biso   1.000  C
  C25      1.0000 0.16340  0.92880  0.61920  Biso   1.000  C
  C26      1.0000 0.13980  0.83420  0.67160  Biso   1.000  C
  C27      1.0000 0.10120  0.72760  0.63760  Biso   1.000  C
  C28      1.0000 0.06520  0.69350  0.56480  Biso   1.000  C
  C29      1.0000 0.04330  0.92830  0.47560  Biso   1.000  C
  C30      1.0000 0.07840  0.96690  0.54620  Biso   1.000  C
  C31      1.0000 0.20820  0.83140  0.41080  Biso   1.000  C
  C32      1.0000 0.31820  0.93510  0.33800  Biso   1.000  C
  C33      1.0000 0.16890  0.04350  0.24540  Biso   1.000  C
  C34      1.0000 0.06200  0.93630  0.32180  Biso   1.000  C
  C35      1.0000 0.34650  0.10230  0.25400  Biso   1.000  C
  C36      1.0000 0.30690  0.11290  0.20120  Biso   1.000  C
  C37      1.0000 0.38630  0.01850  0.16680  Biso   1.000  C
  C38      1.0000 0.42280  0.00130  0.22240  Biso   1.000  C
  C39      1.0000 0.45200  0.16340  0.11920  Biso   1.000  C
  C40      1.0000 0.49420  0.13980  0.17160  Biso   1.000  C
  C41      1.0000 0.63480  0.10120  0.13760  Biso   1.000  C
  C42      1.0000 0.74170  0.06520  0.06480  Biso   1.000  C
  C43      1.0000 0.59610  0.04330  0.97560  Biso   1.000  C
  C44      1.0000 0.48690  0.07840  0.04620  Biso   1.000  C
  C45      1.0000 0.88100  0.75780  0.41080  Biso   1.000  C
  C46      1.0000 0.84380  0.72690  0.33800  Biso   1.000  C
  C47      1.0000 0.08570  0.71110  0.24540  Biso   1.000  C
  C48      1.0000 0.11620  0.74190  0.32180  Biso   1.000  C
  C49      1.0000 0.89950  0.64370  0.25400  Biso   1.000  C
  C50      1.0000 0.99190  0.68590  0.20120  Biso   1.000  C
  C51      1.0000 0.94690  0.81470  0.16680  Biso   1.000  C
  C52      1.0000 0.85480  0.77630  0.22240  Biso   1.000  C
  C53      1.0000 0.92880  0.71740  0.11920  Biso   1.000  C
  C54      1.0000 0.83420  0.68860  0.17160  Biso   1.000  C
  C55      1.0000 0.72760  0.76120  0.13760  Biso   1.000  C
  C56      1.0000 0.69350  0.87000  0.06480  Biso   1.000  C
  C57      1.0000 0.92830  0.98110  0.97560  Biso   1.000  C
  C58      1.0000 0.96690  0.87540  0.04620  Biso   1.000  C
  C59      1.0000 0.74850  0.20040  0.87620  Biso   1.000  C
  C60      1.0000 0.72960  0.26620  0.83300  Biso   1.000  C
  C61      1.0000 0.71410  0.25790  0.78180  Biso   1.000  C
  C62      1.0000 0.72030  0.17890  0.77940  Biso   1.000  C
  C63      1.0000 0.73940  0.11540  0.82440  Biso   1.000  C
  C64      1.0000 0.69610  0.32820  0.73160  Biso   1.000  C
  C65      1.0000 0.76330  0.40280  0.69240  Biso   1.000  C
  C66      1.0000 0.73670  0.47440  0.64540  Biso   1.000  C
  C67      1.0000 0.80459  0.54709  0.60002  Biso   1.000  C
  C68      1.0000 0.80590  0.62560  0.60420  Biso   1.000  C
  C69      1.0000 0.87110  0.68920  0.56060  Biso   1.000  C
  C70      1.0000 0.93550  0.60430  0.50900  Biso   1.000  C
  C71      1.0000 0.87240  0.53900  0.55100  Biso   1.000  C
  C72      1.0000 0.87530  0.92340  0.87620  Biso   1.000  C
  C73      1.0000 0.93740  0.90080  0.83300  Biso   1.000  C
  C74      1.0000 0.00410  0.96030  0.78180  Biso   1.000  C
  C75      1.0000 0.00030  0.04170  0.77940  Biso   1.000  C
  C76      1.0000 0.93620  0.06020  0.82440  Biso   1.000  C
  C77      1.0000 0.07230  0.94020  0.73160  Biso   1.000  C
  C78      1.0000 0.04430  0.90480  0.69240  Biso   1.000  C
  C79      1.0000 0.11790  0.88020  0.64540  Biso   1.000  C
  C80      1.0000 0.09539  0.85289  0.60002  Biso   1.000  C
  C81      1.0000 0.08990  0.77020  0.60420  Biso   1.000  C
  C82      1.0000 0.06830  0.75020  0.56060  Biso   1.000  C
  C83      1.0000 0.05550  0.88670  0.50900  Biso   1.000  C
  C84      1.0000 0.07660  0.91000  0.55100  Biso   1.000  C
  C85      1.0000 0.20040  0.87530  0.37620  Biso   1.000  C
  C86      1.0000 0.26620  0.93740  0.33300  Biso   1.000  C
  C87      1.0000 0.25790  0.00410  0.28180  Biso   1.000  C
  C88      1.0000 0.17890  0.00030  0.27940  Biso   1.000  C
  C89      1.0000 0.11540  0.93620  0.32440  Biso   1.000  C
  C90      1.0000 0.32820  0.07230  0.23160  Biso   1.000  C
  C91      1.0000 0.40280  0.04430  0.19240  Biso   1.000  C
  C92      1.0000 0.47440  0.11790  0.14540  Biso   1.000  C
  C93      1.0000 0.54709  0.09539  0.10002  Biso   1.000  C
  C94      1.0000 0.62560  0.08990  0.10420  Biso   1.000  C
  C95      1.0000 0.68920  0.06830  0.06060  Biso   1.000  C
  C96      1.0000 0.60430  0.05550  0.00900  Biso   1.000  C
  C97      1.0000 0.53900  0.07660  0.05100  Biso   1.000  C
  C98      1.0000 0.92340  0.74850  0.37620  Biso   1.000  C
  C99      1.0000 0.90080  0.72960  0.33300  Biso   1.000  C
  C100     1.0000 0.96030  0.71410  0.28180  Biso   1.000  C
  C101     1.0000 0.04170  0.72030  0.27940  Biso   1.000  C
  C102     1.0000 0.06020  0.73940  0.32440  Biso   1.000  C
  C103     1.0000 0.94020  0.69610  0.23160  Biso   1.000  C
  C104     1.0000 0.90480  0.76330  0.19240  Biso   1.000  C
  C105     1.0000 0.88020  0.73670  0.14540  Biso   1.000  C
  C106     1.0000 0.85289  0.80459  0.10002  Biso   1.000  C
  C107     1.0000 0.77020  0.80590  0.10420  Biso   1.000  C
  C108     1.0000 0.75020  0.87110  0.06060  Biso   1.000  C
  C109     1.0000 0.88670  0.93550  0.00900  Biso   1.000  C
  C110     1.0000 0.91000  0.87240  0.05100  Biso   1.000  C
  C111     1.0000 0.75440  0.12670  0.87260  Biso   1.000  C
  C112     1.0000 0.93599  0.68069  0.51262  Biso   1.000  C
  C113     1.0000 0.87300  0.00070  0.87260  Biso   1.000  C
  C114     1.0000 0.05139  0.80669  0.51262  Biso   1.000  C
  C115     1.0000 0.12670  0.87300  0.37260  Biso   1.000  C
  C116     1.0000 0.68069  0.05139  0.01262  Biso   1.000  C
  C117     1.0000 0.00070  0.75440  0.37260  Biso   1.000  C
  C118     1.0000 0.80669  0.93599  0.01262  Biso   1.000  C
  C119     1.0000 0.67004  0.91714  0.94326  Biso   1.000  C
  C120     1.0000 0.88670  0.13960  0.94326  Biso   1.000  C
  C121     1.0000 0.91714  0.88670  0.44326  Biso   1.000  C
  C122     1.0000 0.13960  0.67004  0.44326  Biso   1.000  C
  O1       1.0000 0.97265  0.70342  0.55468  Biso   1.000  O
  O2       1.0000 0.72265  0.95342  0.05468  Biso   1.000  O
  O3       1.0000 0.99342  0.85099  0.58674  Biso   1.000  O
  O4       1.0000 0.02432  0.88819  0.65954  Biso   1.000  O
  O5       1.0000 0.04012  0.64629  0.75214  Biso   1.000  O
  O6       1.0000 0.00932  0.61579  0.67574  Biso   1.000  O
  O7       1.0000 0.10752  0.83249  0.74354  Biso   1.000  O
  O8       1.0000 0.06532  0.74009  0.79634  Biso   1.000  O
  O9       1.0000 0.93652  0.78509  0.83074  Biso   1.000  O
  O10      1.0000 0.97492  0.87719  0.77514  Biso   1.000  O
  O11      1.0000 0.03382  0.80319  0.87834  Biso   1.000  O
  O12      1.0000 0.06262  0.89779  0.82594  Biso   1.000  O
  O13      1.0000 0.99002  0.00439  0.85994  Biso   1.000  O
  O14      1.0000 0.88122  0.03849  0.93274  Biso   1.000  O
  O15      1.0000 0.77012  0.80369  0.02194  Biso   1.000  O
  O16      1.0000 0.87582  0.76509  0.95134  Biso   1.000  O
  O17      1.0000 0.91982  0.52379  0.58674  Biso   1.000  O
  O18      1.0000 0.81612  0.41379  0.65954  Biso   1.000  O
  O19      1.0000 0.70772  0.56309  0.75214  Biso   1.000  O
  O20      1.0000 0.81492  0.66999  0.67574  Biso   1.000  O
  O21      1.0000 0.64892  0.38549  0.74354  Biso   1.000  O
  O22      1.0000 0.63832  0.42509  0.79634  Biso   1.000  O
  O23      1.0000 0.73272  0.34569  0.83074  Biso   1.000  O
  O24      1.0000 0.74992  0.30919  0.77514  Biso   1.000  O
  O25      1.0000 0.58782  0.27999  0.87834  Biso   1.000  O
  O26      1.0000 0.61142  0.23779  0.82594  Biso   1.000  O
  O27      1.0000 0.65002  0.09719  0.85994  Biso   1.000  O
  O28      1.0000 0.68602  0.99029  0.93274  Biso   1.000  O
  O29      1.0000 0.70792  0.13589  0.02194  Biso   1.000  O
  O30      1.0000 0.67282  0.24509  0.95134  Biso   1.000  O
  O31      1.0000 0.54302  0.97419  0.08674  Biso   1.000  O
  O32      1.0000 0.43302  0.00509  0.15954  Biso   1.000  O
  O33      1.0000 0.58232  0.02089  0.25214  Biso   1.000  O
  O34      1.0000 0.68922  0.99009  0.17574  Biso   1.000  O
  O35      1.0000 0.40472  0.08829  0.24354  Biso   1.000  O
  O36      1.0000 0.44432  0.04609  0.29634  Biso   1.000  O
  O37      1.0000 0.36492  0.91729  0.33074  Biso   1.000  O
  O38      1.0000 0.32842  0.95569  0.27514  Biso   1.000  O
  O39      1.0000 0.29922  0.01459  0.37834  Biso   1.000  O
  O40      1.0000 0.25702  0.04339  0.32594  Biso   1.000  O
  O41      1.0000 0.11642  0.97079  0.35994  Biso   1.000  O
  O42      1.0000 0.00952  0.86199  0.43274  Biso   1.000  O
  O43      1.0000 0.15512  0.75089  0.52194  Biso   1.000  O
  O44      1.0000 0.26432  0.85659  0.45134  Biso   1.000  O
  O45      1.0000 0.87022  0.90059  0.08674  Biso   1.000  O
  O46      1.0000 0.90742  0.79689  0.15954  Biso   1.000  O
  O47      1.0000 0.66552  0.68849  0.25214  Biso   1.000  O
  O48      1.0000 0.63502  0.79569  0.17574  Biso   1.000  O
  O49      1.0000 0.85172  0.62969  0.24354  Biso   1.000  O
  O50      1.0000 0.75932  0.61909  0.29634  Biso   1.000  O
  O51      1.0000 0.80432  0.71349  0.33074  Biso   1.000  O
  O52      1.0000 0.89642  0.73069  0.27514  Biso   1.000  O
  O53      1.0000 0.82242  0.56859  0.37834  Biso   1.000  O
  O54      1.0000 0.91702  0.59219  0.32594  Biso   1.000  O
  O55      1.0000 0.02362  0.63079  0.35994  Biso   1.000  O
  O56      1.0000 0.05772  0.66679  0.43274  Biso   1.000  O
  O57      1.0000 0.82292  0.68869  0.52194  Biso   1.000  O
  O58      1.0000 0.78432  0.65359  0.45134  Biso   1.000  O
  O59      1.0000 0.00272  0.80859  0.62134  Biso   1.000  O
  O60      1.0000 0.02162  0.83119  0.66454  Biso   1.000  O
  O61      1.0000 0.03712  0.77169  0.71574  Biso   1.000  O
  O62      1.0000 0.03092  0.69029  0.71814  Biso   1.000  O
  O63      1.0000 0.01182  0.67179  0.67314  Biso   1.000  O
  O64      1.0000 0.05512  0.79179  0.76594  Biso   1.000  O
  O65      1.0000 0.98792  0.82719  0.80514  Biso   1.000  O
  O66      1.0000 0.01452  0.85179  0.85214  Biso   1.000  O
  O67      1.0000 0.94663  0.87910  0.89752  Biso   1.000  O
  O68      1.0000 0.94532  0.96179  0.89334  Biso   1.000  O
  O69      1.0000 0.88012  0.98179  0.93694  Biso   1.000  O
  O70      1.0000 0.81572  0.84529  0.98854  Biso   1.000  O
  O71      1.0000 0.87882  0.82199  0.94654  Biso   1.000  O
  O72      1.0000 0.87592  0.53159  0.62134  Biso   1.000  O
  O73      1.0000 0.81382  0.46579  0.66454  Biso   1.000  O
  O74      1.0000 0.74712  0.47409  0.71574  Biso   1.000  O
  O75      1.0000 0.75092  0.55309  0.71814  Biso   1.000  O
  O76      1.0000 0.81502  0.61659  0.67314  Biso   1.000  O
  O77      1.0000 0.67892  0.40379  0.76594  Biso   1.000  O
  O78      1.0000 0.70692  0.32919  0.80514  Biso   1.000  O
  O79      1.0000 0.63332  0.25759  0.85214  Biso   1.000  O
  O80      1.0000 0.65583  0.18490  0.89752  Biso   1.000  O
  O81      1.0000 0.66132  0.10639  0.89334  Biso   1.000  O
  O82      1.0000 0.68292  0.04279  0.93694  Biso   1.000  O
  O83      1.0000 0.69572  0.12769  0.98854  Biso   1.000  O
  O84      1.0000 0.67462  0.19299  0.94654  Biso   1.000  O
  O85      1.0000 0.55082  0.98349  0.12134  Biso   1.000  O
  O86      1.0000 0.48502  0.00239  0.16454  Biso   1.000  O
  O87      1.0000 0.49332  0.01789  0.21574  Biso   1.000  O
  O88      1.0000 0.57232  0.01169  0.21814  Biso   1.000  O
  O89      1.0000 0.63582  0.99259  0.17314  Biso   1.000  O
  O90      1.0000 0.42302  0.03589  0.26594  Biso   1.000  O
  O91      1.0000 0.34842  0.96869  0.30514  Biso   1.000  O
  O92      1.0000 0.27682  0.99529  0.35214  Biso   1.000  O
  O93      1.0000 0.20413  0.92740  0.39752  Biso   1.000  O
  O94      1.0000 0.12562  0.92609  0.39334  Biso   1.000  O
  O95      1.0000 0.06202  0.86089  0.43694  Biso   1.000  O
  O96      1.0000 0.14692  0.79649  0.48854  Biso   1.000  O
  O97      1.0000 0.21222  0.85959  0.44654  Biso   1.000  O
  O98      1.0000 0.82782  0.85669  0.12134  Biso   1.000  O
  O99      1.0000 0.85042  0.79459  0.16454  Biso   1.000  O
  O100     1.0000 0.79092  0.72789  0.21574  Biso   1.000  O
  O101     1.0000 0.70952  0.73169  0.21814  Biso   1.000  O
  O102     1.0000 0.69102  0.79579  0.17314  Biso   1.000  O
  O103     1.0000 0.81102  0.65969  0.26594  Biso   1.000  O
  O104     1.0000 0.84642  0.68769  0.30514  Biso   1.000  O
  O105     1.0000 0.87102  0.61409  0.35214  Biso   1.000  O
  O106     1.0000 0.89833  0.63660  0.39752  Biso   1.000  O
  O107     1.0000 0.98102  0.64209  0.39334  Biso   1.000  O
  O108     1.0000 0.00102  0.66369  0.43694  Biso   1.000  O
  O109     1.0000 0.86452  0.67649  0.48854  Biso   1.000  O
  O110     1.0000 0.84122  0.65539  0.44654  Biso   1.000  O
  O111     1.0000 0.99682  0.73129  0.62494  Biso   1.000  O
  O112     1.0000 0.81523  0.92530  0.98492  Biso   1.000  O
  O113     1.0000 0.87822  0.60529  0.62494  Biso   1.000  O
  O114     1.0000 0.69983  0.05130  0.98492  Biso   1.000  O
  O115     1.0000 0.62452  0.97759  0.12494  Biso   1.000  O
  O116     1.0000 0.07053  0.79600  0.48492  Biso   1.000  O
  O117     1.0000 0.75052  0.85899  0.12494  Biso   1.000  O
  O118     1.0000 0.94453  0.68060  0.48492  Biso   1.000  O
  O119     1.0000 0.08118  0.59239  0.55428  Biso   1.000  O
  O120     1.0000 0.86452  0.81485  0.55428  Biso   1.000  O
  O121     1.0000 0.83408  0.06195  0.05428  Biso   1.000  O
  O122     1.0000 0.61162  0.84529  0.05428  Biso   1.000  O
