data_image0
_cell_length_a       18.1065
_cell_length_b       18.1065
_cell_length_c       18.1065
_cell_angle_alpha    60
_cell_angle_beta     60
_cell_angle_gamma    60

_symmetry_space_group_name_H-M    "P 1"
_symmetry_int_tables_number       1

loop_
  _symmetry_equiv_pos_as_xyz
  'x, y, z'

loop_
  _atom_site_label
  _atom_site_occupancy
  _atom_site_fract_x
  _atom_site_fract_y
  _atom_site_fract_z
  _atom_site_thermal_displace_type
  _atom_site_B_iso_or_equiv
  _atom_site_type_symbol
  Zn1      1.0000 0.79354  0.61938  0.79354  Biso   1.000  Zn
  Zn2      1.0000 0.61938  0.79354  0.79354  Biso   1.000  Zn
  Zn3      1.0000 0.20646  0.20646  0.38062  Biso   1.000  Zn
  Zn4      1.0000 0.79354  0.79354  0.79354  Biso   1.000  Zn
  Zn5      1.0000 0.20646  0.38062  0.20646  Biso   1.000  Zn
  Zn6      1.0000 0.20646  0.20646  0.20646  Biso   1.000  Zn
  Zn7      1.0000 0.38062  0.20646  0.20646  Biso   1.000  Zn
  Zn8      1.0000 0.79354  0.79354  0.61938  Biso   1.000  Zn
  C1       1.0000 0.41290  0.53690  0.02510  Biso   1.000  C
  C2       1.0000 0.97490  0.46310  0.97490  Biso   1.000  C
  C3       1.0000 0.53690  0.02510  0.02510  Biso   1.000  C
  C4       1.0000 0.94610  0.55390  0.55390  Biso   1.000  C
  C5       1.0000 0.41290  0.02510  0.53690  Biso   1.000  C
  C6       1.0000 0.55390  0.55390  0.94610  Biso   1.000  C
  C7       1.0000 0.38730  0.38730  0.11270  Biso   1.000  C
  C8       1.0000 0.46310  0.58710  0.97490  Biso   1.000  C
  C9       1.0000 0.58710  0.46310  0.97490  Biso   1.000  C
  C10      1.0000 0.94610  0.94610  0.55390  Biso   1.000  C
  C11      1.0000 0.94610  0.55390  0.94610  Biso   1.000  C
  C12      1.0000 0.02510  0.53690  0.41290  Biso   1.000  C
  C13      1.0000 0.02510  0.41290  0.02510  Biso   1.000  C
  C14      1.0000 0.88730  0.61270  0.88730  Biso   1.000  C
  C15      1.0000 0.61270  0.88730  0.61270  Biso   1.000  C
  C16      1.0000 0.38730  0.11270  0.11270  Biso   1.000  C
  C17      1.0000 0.61270  0.88730  0.88730  Biso   1.000  C
  C18      1.0000 0.61270  0.61270  0.88730  Biso   1.000  C
  C19      1.0000 0.53690  0.41290  0.02510  Biso   1.000  C
  C20      1.0000 0.58710  0.97490  0.97490  Biso   1.000  C
  C21      1.0000 0.11270  0.38730  0.11270  Biso   1.000  C
  C22      1.0000 0.46310  0.97490  0.97490  Biso   1.000  C
  C23      1.0000 0.02510  0.41290  0.53690  Biso   1.000  C
  C24      1.0000 0.88730  0.88730  0.61270  Biso   1.000  C
  C25      1.0000 0.46310  0.97490  0.58710  Biso   1.000  C
  C26      1.0000 0.38730  0.11270  0.38730  Biso   1.000  C
  C27      1.0000 0.05390  0.44610  0.05390  Biso   1.000  C
  C28      1.0000 0.41290  0.02510  0.02510  Biso   1.000  C
  C29      1.0000 0.97490  0.97490  0.46310  Biso   1.000  C
  C30      1.0000 0.88730  0.61270  0.61270  Biso   1.000  C
  C31      1.0000 0.53690  0.02510  0.41290  Biso   1.000  C
  C32      1.0000 0.97490  0.97490  0.58710  Biso   1.000  C
  C33      1.0000 0.44610  0.05390  0.44610  Biso   1.000  C
  C34      1.0000 0.02510  0.53690  0.02510  Biso   1.000  C
  C35      1.0000 0.02510  0.02510  0.41290  Biso   1.000  C
  C36      1.0000 0.11270  0.38730  0.38730  Biso   1.000  C
  C37      1.0000 0.02510  0.02510  0.53690  Biso   1.000  C
  C38      1.0000 0.97490  0.46310  0.58710  Biso   1.000  C
  C39      1.0000 0.97490  0.58710  0.46310  Biso   1.000  C
  C40      1.0000 0.55390  0.94610  0.94610  Biso   1.000  C
  C41      1.0000 0.97490  0.58710  0.97490  Biso   1.000  C
  C42      1.0000 0.44610  0.05390  0.05390  Biso   1.000  C
  C43      1.0000 0.05390  0.44610  0.44610  Biso   1.000  C
  C44      1.0000 0.11270  0.11270  0.38730  Biso   1.000  C
  C45      1.0000 0.05390  0.05390  0.44610  Biso   1.000  C
  C46      1.0000 0.55390  0.94610  0.55390  Biso   1.000  C
  C47      1.0000 0.58710  0.97490  0.46310  Biso   1.000  C
  C48      1.0000 0.44610  0.44610  0.05390  Biso   1.000  C
  O1       1.0000 0.13360  0.42978  0.13360  Biso   1.000  O
  O2       1.0000 0.13360  0.42978  0.30302  Biso   1.000  O
  O3       1.0000 0.86640  0.57022  0.86640  Biso   1.000  O
  O4       1.0000 0.30302  0.13360  0.42978  Biso   1.000  O
  O5       1.0000 0.13360  0.13360  0.42978  Biso   1.000  O
  O6       1.0000 0.86640  0.57022  0.69698  Biso   1.000  O
  O7       1.0000 0.69698  0.86640  0.57022  Biso   1.000  O
  O8       1.0000 0.86640  0.86640  0.57022  Biso   1.000  O
  O9       1.0000 0.13360  0.30302  0.13360  Biso   1.000  O
  O10      1.0000 0.42978  0.30302  0.13360  Biso   1.000  O
  O11      1.0000 0.86640  0.69698  0.86640  Biso   1.000  O
  O12      1.0000 0.13360  0.13360  0.30302  Biso   1.000  O
  O13      1.0000 0.69698  0.86640  0.86640  Biso   1.000  O
  O14      1.0000 0.57022  0.69698  0.86640  Biso   1.000  O
  O15      1.0000 0.57022  0.86640  0.86640  Biso   1.000  O
  O16      1.0000 0.13360  0.30302  0.42978  Biso   1.000  O
  O17      1.0000 0.25000  0.25000  0.25000  Biso   1.000  O
  O18      1.0000 0.30302  0.42978  0.13360  Biso   1.000  O
  O19      1.0000 0.69698  0.57022  0.86640  Biso   1.000  O
  O20      1.0000 0.57022  0.86640  0.69698  Biso   1.000  O
  O21      1.0000 0.42978  0.13360  0.13360  Biso   1.000  O
  O22      1.0000 0.86640  0.86640  0.69698  Biso   1.000  O
  O23      1.0000 0.75000  0.75000  0.75000  Biso   1.000  O
  O24      1.0000 0.30302  0.13360  0.13360  Biso   1.000  O
  O25      1.0000 0.86640  0.69698  0.57022  Biso   1.000  O
  O26      1.0000 0.42978  0.13360  0.30302  Biso   1.000  O
  H1       1.0000 0.33611  0.56917  0.04736  Biso   1.000  H
  H2       1.0000 0.95490  0.42685  0.95490  Biso   1.000  H
  H3       1.0000 0.56917  0.04736  0.04736  Biso   1.000  H
  H4       1.0000 0.33611  0.04736  0.56917  Biso   1.000  H
  H5       1.0000 0.43083  0.66389  0.95264  Biso   1.000  H
  H6       1.0000 0.66335  0.42685  0.95490  Biso   1.000  H
  H7       1.0000 0.04736  0.56917  0.33611  Biso   1.000  H
  H8       1.0000 0.04736  0.33611  0.04736  Biso   1.000  H
  H9       1.0000 0.56917  0.33611  0.04736  Biso   1.000  H
  H10      1.0000 0.66389  0.95264  0.95264  Biso   1.000  H
  H11      1.0000 0.43083  0.95264  0.95264  Biso   1.000  H
  H12      1.0000 0.04736  0.33611  0.56917  Biso   1.000  H
  H13      1.0000 0.43083  0.95264  0.66389  Biso   1.000  H
  H14      1.0000 0.33611  0.04736  0.04736  Biso   1.000  H
  H15      1.0000 0.95490  0.95490  0.42685  Biso   1.000  H
  H16      1.0000 0.57315  0.04510  0.33665  Biso   1.000  H
  H17      1.0000 0.95490  0.95490  0.66335  Biso   1.000  H
  H18      1.0000 0.04510  0.57315  0.04510  Biso   1.000  H
  H19      1.0000 0.04736  0.04736  0.33611  Biso   1.000  H
  H20      1.0000 0.04736  0.04736  0.56917  Biso   1.000  H
  H21      1.0000 0.95490  0.42685  0.66335  Biso   1.000  H
  H22      1.0000 0.95264  0.66389  0.43083  Biso   1.000  H
  H23      1.0000 0.95490  0.66335  0.95490  Biso   1.000  H
  H24      1.0000 0.66389  0.95264  0.43083  Biso   1.000  H
  Zn9      1.0000 0.59714  0.40286  0.40286  Biso   1.000  Zn
  Zn10     1.0000 0.42055  0.40286  0.57945  Biso   1.000  Zn
  Zn11     1.0000 0.42055  0.57945  0.40286  Biso   1.000  Zn
  Zn12     1.0000 0.42055  0.40286  0.40286  Biso   1.000  Zn
  Zn13     1.0000 0.85880  0.98230  0.98230  Biso   1.000  Zn
  Zn14     1.0000 0.03539  0.98230  0.80571  Biso   1.000  Zn
  Zn15     1.0000 0.03539  0.98230  0.98230  Biso   1.000  Zn
  Zn16     1.0000 0.03539  0.80571  0.98230  Biso   1.000  Zn
  H25      1.0000 0.78527  0.23817  0.23817  Biso   1.000  H
  H26      1.0000 0.27356  0.54409  0.74988  Biso   1.000  H
  H27      1.0000 0.27356  0.74988  0.54409  Biso   1.000  H
  H28      1.0000 0.57948  0.23817  0.23817  Biso   1.000  H
  H29      1.0000 0.27356  0.23817  0.74988  Biso   1.000  H
  H30      1.0000 0.57948  0.74988  0.23817  Biso   1.000  H
  H31      1.0000 0.78527  0.54409  0.23817  Biso   1.000  H
  H32      1.0000 0.27356  0.23817  0.54409  Biso   1.000  H
  H33      1.0000 0.27356  0.74988  0.23817  Biso   1.000  H
  H34      1.0000 0.78527  0.23817  0.54409  Biso   1.000  H
  H35      1.0000 0.57948  0.23817  0.74988  Biso   1.000  H
  H36      1.0000 0.27356  0.54409  0.23817  Biso   1.000  H
  H37      1.0000 0.67067  0.84107  0.14699  Biso   1.000  H
  H38      1.0000 0.18238  0.14699  0.63528  Biso   1.000  H
  H39      1.0000 0.18238  0.14699  0.84107  Biso   1.000  H
  H40      1.0000 0.87646  0.63528  0.14699  Biso   1.000  H
  H41      1.0000 0.18238  0.84107  0.63528  Biso   1.000  H
  H42      1.0000 0.87646  0.14699  0.14699  Biso   1.000  H
  H43      1.0000 0.67067  0.14699  0.14699  Biso   1.000  H
  H44      1.0000 0.18238  0.63528  0.84107  Biso   1.000  H
  H45      1.0000 0.18238  0.84107  0.14699  Biso   1.000  H
  H46      1.0000 0.67067  0.14699  0.84107  Biso   1.000  H
  H47      1.0000 0.87646  0.14699  0.63528  Biso   1.000  H
  H48      1.0000 0.18238  0.63528  0.14699  Biso   1.000  H
  C49      1.0000 0.75871  0.21996  0.21996  Biso   1.000  C
  C50      1.0000 0.25535  0.60709  0.72332  Biso   1.000  C
  C51      1.0000 0.25535  0.72332  0.60709  Biso   1.000  C
  C52      1.0000 0.64248  0.21996  0.21996  Biso   1.000  C
  C53      1.0000 0.25535  0.21996  0.72332  Biso   1.000  C
  C54      1.0000 0.64248  0.72332  0.21996  Biso   1.000  C
  C55      1.0000 0.75871  0.60709  0.21996  Biso   1.000  C
  C56      1.0000 0.25535  0.21996  0.60709  Biso   1.000  C
  C57      1.0000 0.25535  0.72332  0.21996  Biso   1.000  C
  C58      1.0000 0.75871  0.21996  0.60709  Biso   1.000  C
  C59      1.0000 0.64248  0.21996  0.72332  Biso   1.000  C
  C60      1.0000 0.25535  0.60709  0.21996  Biso   1.000  C
  C61      1.0000 0.69723  0.77807  0.16520  Biso   1.000  C
  C62      1.0000 0.20060  0.16520  0.66184  Biso   1.000  C
  C63      1.0000 0.20060  0.16520  0.77807  Biso   1.000  C
  C64      1.0000 0.81346  0.66184  0.16520  Biso   1.000  C
  C65      1.0000 0.20060  0.77807  0.66184  Biso   1.000  C
  C66      1.0000 0.81346  0.16520  0.16520  Biso   1.000  C
  C67      1.0000 0.69723  0.16520  0.16520  Biso   1.000  C
  C68      1.0000 0.20060  0.66184  0.77807  Biso   1.000  C
  C69      1.0000 0.20060  0.77807  0.16520  Biso   1.000  C
  C70      1.0000 0.69723  0.16520  0.77807  Biso   1.000  C
  C71      1.0000 0.81346  0.16520  0.66184  Biso   1.000  C
  C72      1.0000 0.20060  0.66184  0.16520  Biso   1.000  C
  C73      1.0000 0.60585  0.30585  0.30585  Biso   1.000  C
  C74      1.0000 0.66437  0.24733  0.24733  Biso   1.000  C
  C75      1.0000 0.32355  0.58816  0.58816  Biso   1.000  C
  C76      1.0000 0.26503  0.64668  0.64668  Biso   1.000  C
  C77      1.0000 0.32355  0.30585  0.58816  Biso   1.000  C
  C78      1.0000 0.26503  0.24733  0.64668  Biso   1.000  C
  C79      1.0000 0.60585  0.58816  0.30585  Biso   1.000  C
  C80      1.0000 0.66437  0.64668  0.24733  Biso   1.000  C
  C81      1.0000 0.32355  0.58816  0.30585  Biso   1.000  C
  C82      1.0000 0.26503  0.64668  0.24733  Biso   1.000  C
  C83      1.0000 0.60585  0.30585  0.58816  Biso   1.000  C
  C84      1.0000 0.66437  0.24733  0.64668  Biso   1.000  C
  C85      1.0000 0.85009  0.79700  0.07931  Biso   1.000  C
  C86      1.0000 0.79157  0.73848  0.13783  Biso   1.000  C
  C87      1.0000 0.13240  0.07931  0.79700  Biso   1.000  C
  C88      1.0000 0.19092  0.13783  0.73848  Biso   1.000  C
  C89      1.0000 0.13240  0.79700  0.79700  Biso   1.000  C
  C90      1.0000 0.19092  0.73848  0.73848  Biso   1.000  C
  C91      1.0000 0.85009  0.07931  0.07931  Biso   1.000  C
  C92      1.0000 0.79157  0.13783  0.13783  Biso   1.000  C
  C93      1.0000 0.13240  0.79700  0.07931  Biso   1.000  C
  C94      1.0000 0.19092  0.73848  0.13783  Biso   1.000  C
  C95      1.0000 0.85009  0.07931  0.79700  Biso   1.000  C
  C96      1.0000 0.79157  0.13783  0.73848  Biso   1.000  C
  O27      1.0000 0.46470  0.44700  0.44700  Biso   1.000  O
  O28      1.0000 0.99124  0.93816  0.93816  Biso   1.000  O
  O29      1.0000 0.64765  0.32895  0.32895  Biso   1.000  O
  O30      1.0000 0.34665  0.50016  0.62996  Biso   1.000  O
  O31      1.0000 0.34665  0.62996  0.50016  Biso   1.000  O
  O32      1.0000 0.51785  0.32895  0.32895  Biso   1.000  O
  O33      1.0000 0.34665  0.32895  0.62996  Biso   1.000  O
  O34      1.0000 0.51785  0.62996  0.32895  Biso   1.000  O
  O35      1.0000 0.64765  0.50016  0.32895  Biso   1.000  O
  O36      1.0000 0.34665  0.32895  0.50016  Biso   1.000  O
  O37      1.0000 0.34665  0.62996  0.32895  Biso   1.000  O
  O38      1.0000 0.64765  0.32895  0.50016  Biso   1.000  O
  O39      1.0000 0.51785  0.32895  0.62996  Biso   1.000  O
  O40      1.0000 0.34665  0.50016  0.32895  Biso   1.000  O
  O41      1.0000 0.80829  0.88500  0.05621  Biso   1.000  O
  O42      1.0000 0.10930  0.05621  0.75521  Biso   1.000  O
  O43      1.0000 0.10930  0.05621  0.88500  Biso   1.000  O
  O44      1.0000 0.93809  0.75521  0.05621  Biso   1.000  O
  O45      1.0000 0.10930  0.88500  0.75521  Biso   1.000  O
  O46      1.0000 0.93809  0.05621  0.05621  Biso   1.000  O
  O47      1.0000 0.80829  0.05621  0.05621  Biso   1.000  O
  O48      1.0000 0.10930  0.75521  0.88500  Biso   1.000  O
  O49      1.0000 0.10930  0.88500  0.05621  Biso   1.000  O
  O50      1.0000 0.80829  0.05621  0.88500  Biso   1.000  O
  O51      1.0000 0.93809  0.05621  0.75521  Biso   1.000  O
  O52      1.0000 0.10930  0.75521  0.05621  Biso   1.000  O
