data_image0
_cell_length_a       18.1065
_cell_length_b       18.1065
_cell_length_c       18.1065
_cell_angle_alpha    60
_cell_angle_beta     60
_cell_angle_gamma    60

_symmetry_space_group_name_H-M    "P 1"
_symmetry_int_tables_number       1

loop_
  _symmetry_equiv_pos_as_xyz
  'x, y, z'

loop_
  _atom_site_label
  _atom_site_occupancy
  _atom_site_fract_x
  _atom_site_fract_y
  _atom_site_fract_z
  _atom_site_thermal_displace_type
  _atom_site_B_iso_or_equiv
  _atom_site_type_symbol
  Zn1      1.0000 0.79354  0.61938  0.79354  Biso   1.000  Zn
  Zn2      1.0000 0.61938  0.79354  0.79354  Biso   1.000  Zn
  Zn3      1.0000 0.20646  0.20646  0.38062  Biso   1.000  Zn
  Zn4      1.0000 0.79354  0.79354  0.79354  Biso   1.000  Zn
  Zn5      1.0000 0.20646  0.38062  0.20646  Biso   1.000  Zn
  Zn6      1.0000 0.20646  0.20646  0.20646  Biso   1.000  Zn
  Zn7      1.0000 0.38062  0.20646  0.20646  Biso   1.000  Zn
  Zn8      1.0000 0.79354  0.79354  0.61938  Biso   1.000  Zn
  C1       1.0000 0.41290  0.53690  0.02510  Biso   1.000  C
  C2       1.0000 0.97490  0.46310  0.97490  Biso   1.000  C
  C3       1.0000 0.53690  0.02510  0.02510  Biso   1.000  C
  C4       1.0000 0.94610  0.55390  0.55390  Biso   1.000  C
  C5       1.0000 0.41290  0.02510  0.53690  Biso   1.000  C
  C6       1.0000 0.55390  0.55390  0.94610  Biso   1.000  C
  C7       1.0000 0.38730  0.38730  0.11270  Biso   1.000  C
  C8       1.0000 0.46310  0.58710  0.97490  Biso   1.000  C
  C9       1.0000 0.58710  0.46310  0.97490  Biso   1.000  C
  C10      1.0000 0.94610  0.94610  0.55390  Biso   1.000  C
  C11      1.0000 0.94610  0.55390  0.94610  Biso   1.000  C
  C12      1.0000 0.02510  0.53690  0.41290  Biso   1.000  C
  C13      1.0000 0.02510  0.41290  0.02510  Biso   1.000  C
  C14      1.0000 0.88730  0.61270  0.88730  Biso   1.000  C
  C15      1.0000 0.61270  0.88730  0.61270  Biso   1.000  C
  C16      1.0000 0.38730  0.11270  0.11270  Biso   1.000  C
  C17      1.0000 0.61270  0.88730  0.88730  Biso   1.000  C
  C18      1.0000 0.61270  0.61270  0.88730  Biso   1.000  C
  C19      1.0000 0.53690  0.41290  0.02510  Biso   1.000  C
  C20      1.0000 0.58710  0.97490  0.97490  Biso   1.000  C
  C21      1.0000 0.11270  0.38730  0.11270  Biso   1.000  C
  C22      1.0000 0.46310  0.97490  0.97490  Biso   1.000  C
  C23      1.0000 0.02510  0.41290  0.53690  Biso   1.000  C
  C24      1.0000 0.88730  0.88730  0.61270  Biso   1.000  C
  C25      1.0000 0.46310  0.97490  0.58710  Biso   1.000  C
  C26      1.0000 0.38730  0.11270  0.38730  Biso   1.000  C
  C27      1.0000 0.05390  0.44610  0.05390  Biso   1.000  C
  C28      1.0000 0.41290  0.02510  0.02510  Biso   1.000  C
  C29      1.0000 0.97490  0.97490  0.46310  Biso   1.000  C
  C30      1.0000 0.88730  0.61270  0.61270  Biso   1.000  C
  C31      1.0000 0.53690  0.02510  0.41290  Biso   1.000  C
  C32      1.0000 0.97490  0.97490  0.58710  Biso   1.000  C
  C33      1.0000 0.44610  0.05390  0.44610  Biso   1.000  C
  C34      1.0000 0.02510  0.53690  0.02510  Biso   1.000  C
  C35      1.0000 0.02510  0.02510  0.41290  Biso   1.000  C
  C36      1.0000 0.11270  0.38730  0.38730  Biso   1.000  C
  C37      1.0000 0.02510  0.02510  0.53690  Biso   1.000  C
  C38      1.0000 0.97490  0.46310  0.58710  Biso   1.000  C
  C39      1.0000 0.97490  0.58710  0.46310  Biso   1.000  C
  C40      1.0000 0.55390  0.94610  0.94610  Biso   1.000  C
  C41      1.0000 0.97490  0.58710  0.97490  Biso   1.000  C
  C42      1.0000 0.44610  0.05390  0.05390  Biso   1.000  C
  C43      1.0000 0.05390  0.44610  0.44610  Biso   1.000  C
  C44      1.0000 0.11270  0.11270  0.38730  Biso   1.000  C
  C45      1.0000 0.05390  0.05390  0.44610  Biso   1.000  C
  C46      1.0000 0.55390  0.94610  0.55390  Biso   1.000  C
  C47      1.0000 0.58710  0.97490  0.46310  Biso   1.000  C
  C48      1.0000 0.44610  0.44610  0.05390  Biso   1.000  C
  O1       1.0000 0.13360  0.42978  0.13360  Biso   1.000  O
  O2       1.0000 0.13360  0.42978  0.30302  Biso   1.000  O
  O3       1.0000 0.86640  0.57022  0.86640  Biso   1.000  O
  O4       1.0000 0.30302  0.13360  0.42978  Biso   1.000  O
  O5       1.0000 0.13360  0.13360  0.42978  Biso   1.000  O
  O6       1.0000 0.86640  0.57022  0.69698  Biso   1.000  O
  O7       1.0000 0.69698  0.86640  0.57022  Biso   1.000  O
  O8       1.0000 0.86640  0.86640  0.57022  Biso   1.000  O
  O9       1.0000 0.13360  0.30302  0.13360  Biso   1.000  O
  O10      1.0000 0.42978  0.30302  0.13360  Biso   1.000  O
  O11      1.0000 0.86640  0.69698  0.86640  Biso   1.000  O
  O12      1.0000 0.13360  0.13360  0.30302  Biso   1.000  O
  O13      1.0000 0.69698  0.86640  0.86640  Biso   1.000  O
  O14      1.0000 0.57022  0.69698  0.86640  Biso   1.000  O
  O15      1.0000 0.57022  0.86640  0.86640  Biso   1.000  O
  O16      1.0000 0.13360  0.30302  0.42978  Biso   1.000  O
  O17      1.0000 0.25000  0.25000  0.25000  Biso   1.000  O
  O18      1.0000 0.30302  0.42978  0.13360  Biso   1.000  O
  O19      1.0000 0.69698  0.57022  0.86640  Biso   1.000  O
  O20      1.0000 0.57022  0.86640  0.69698  Biso   1.000  O
  O21      1.0000 0.42978  0.13360  0.13360  Biso   1.000  O
  O22      1.0000 0.86640  0.86640  0.69698  Biso   1.000  O
  O23      1.0000 0.75000  0.75000  0.75000  Biso   1.000  O
  O24      1.0000 0.30302  0.13360  0.13360  Biso   1.000  O
  O25      1.0000 0.86640  0.69698  0.57022  Biso   1.000  O
  O26      1.0000 0.42978  0.13360  0.30302  Biso   1.000  O
  H1       1.0000 0.33611  0.56917  0.04736  Biso   1.000  H
  H2       1.0000 0.95490  0.42685  0.95490  Biso   1.000  H
  H3       1.0000 0.56917  0.04736  0.04736  Biso   1.000  H
  H4       1.0000 0.33611  0.04736  0.56917  Biso   1.000  H
  H5       1.0000 0.43083  0.66389  0.95264  Biso   1.000  H
  H6       1.0000 0.66335  0.42685  0.95490  Biso   1.000  H
  H7       1.0000 0.04736  0.56917  0.33611  Biso   1.000  H
  H8       1.0000 0.04736  0.33611  0.04736  Biso   1.000  H
  H9       1.0000 0.56917  0.33611  0.04736  Biso   1.000  H
  H10      1.0000 0.66389  0.95264  0.95264  Biso   1.000  H
  H11      1.0000 0.43083  0.95264  0.95264  Biso   1.000  H
  H12      1.0000 0.04736  0.33611  0.56917  Biso   1.000  H
  H13      1.0000 0.43083  0.95264  0.66389  Biso   1.000  H
  H14      1.0000 0.33611  0.04736  0.04736  Biso   1.000  H
  H15      1.0000 0.95490  0.95490  0.42685  Biso   1.000  H
  H16      1.0000 0.57315  0.04510  0.33665  Biso   1.000  H
  H17      1.0000 0.95490  0.95490  0.66335  Biso   1.000  H
  H18      1.0000 0.04510  0.57315  0.04510  Biso   1.000  H
  H19      1.0000 0.04736  0.04736  0.33611  Biso   1.000  H
  H20      1.0000 0.04736  0.04736  0.56917  Biso   1.000  H
  H21      1.0000 0.95490  0.42685  0.66335  Biso   1.000  H
  H22      1.0000 0.95264  0.66389  0.43083  Biso   1.000  H
  H23      1.0000 0.95490  0.66335  0.95490  Biso   1.000  H
  H24      1.0000 0.66389  0.95264  0.43083  Biso   1.000  H
  Zn9      1.0000 0.16701  1.00000  0.00000  Biso   1.000  Zn
  Zn10     1.0000 0.56988  0.40286  0.59707  Biso   1.000  Zn
  Zn11     1.0000 0.39219  0.58055  0.59707  Biso   1.000  Zn
  Zn12     1.0000 0.98932  0.17769  0.00000  Biso   1.000  Zn
  Zn13     1.0000 0.98897  0.99966  0.17793  Biso   1.000  Zn
  Zn14     1.0000 0.98917  0.99985  0.99990  Biso   1.000  Zn
  Zn15     1.0000 0.57023  0.58090  0.41913  Biso   1.000  Zn
  Zn16     1.0000 0.57003  0.58070  0.59717  Biso   1.000  Zn
  H25      1.0000 0.82666  0.34412  0.14589  Biso   1.000  H
  H26      1.0000 0.82338  0.14194  0.36103  Biso   1.000  H
  H27      1.0000 0.82759  0.34302  0.83726  Biso   1.000  H
  H28      1.0000 0.82352  0.14451  0.83492  Biso   1.000  H
  H29      1.0000 0.33520  0.14247  0.83980  Biso   1.000  H
  H30      1.0000 0.22574  0.74322  0.45117  Biso   1.000  H
  H31      1.0000 0.42795  0.74649  0.23603  Biso   1.000  H
  H32      1.0000 0.22684  0.74229  0.75981  Biso   1.000  H
  H33      1.0000 0.42538  0.74636  0.76214  Biso   1.000  H
  H34      1.0000 0.42740  0.23469  0.75727  Biso   1.000  H
  H35      1.0000 0.73254  0.23643  0.45117  Biso   1.000  H
  H36      1.0000 0.73581  0.43861  0.23603  Biso   1.000  H
  H37      1.0000 0.73161  0.23753  0.75981  Biso   1.000  H
  H38      1.0000 0.73568  0.43604  0.76214  Biso   1.000  H
  H39      1.0000 0.22400  0.43808  0.75727  Biso   1.000  H
  H40      1.0000 0.33346  0.83733  0.14589  Biso   1.000  H
  H41      1.0000 0.13125  0.83407  0.36103  Biso   1.000  H
  H42      1.0000 0.33236  0.83826  0.83726  Biso   1.000  H
  H43      1.0000 0.13382  0.83419  0.83492  Biso   1.000  H
  H44      1.0000 0.13179  0.34586  0.83980  Biso   1.000  H
  H45      1.0000 0.82472  0.83540  0.14376  Biso   1.000  H
  H46      1.0000 0.82359  0.83427  0.36337  Biso   1.000  H
  H47      1.0000 0.73448  0.74515  0.45331  Biso   1.000  H
  H48      1.0000 0.73561  0.74628  0.23370  Biso   1.000  H
  C49      1.0000 0.89360  0.18635  0.18288  Biso   1.000  C
  C50      1.0000 0.83294  0.24538  0.24508  Biso   1.000  C
  C51      1.0000 0.80765  0.31800  0.20910  Biso   1.000  C
  C52      1.0000 0.80642  0.20504  0.33461  Biso   1.000  C
  C53      1.0000 0.89484  0.18311  0.90128  Biso   1.000  C
  C54      1.0000 0.83662  0.24256  0.84508  Biso   1.000  C
  C55      1.0000 0.80930  0.31640  0.81897  Biso   1.000  C
  C56      1.0000 0.80645  0.20750  0.81714  Biso   1.000  C
  C57      1.0000 0.30868  0.20557  0.81937  Biso   1.000  C
  C58      1.0000 0.38353  0.67626  0.41418  Biso   1.000  C
  C59      1.0000 0.32450  0.73693  0.35199  Biso   1.000  C
  C60      1.0000 0.25186  0.76223  0.38796  Biso   1.000  C
  C61      1.0000 0.36485  0.76345  0.26246  Biso   1.000  C
  C62      1.0000 0.38677  0.67503  0.69578  Biso   1.000  C
  C63      1.0000 0.32733  0.73325  0.75198  Biso   1.000  C
  C64      1.0000 0.25346  0.76058  0.77810  Biso   1.000  C
  C65      1.0000 0.36238  0.76343  0.77993  Biso   1.000  C
  C66      1.0000 0.36430  0.26120  0.77769  Biso   1.000  C
  C67      1.0000 0.66559  0.39420  0.41418  Biso   1.000  C
  C68      1.0000 0.72626  0.33517  0.35199  Biso   1.000  C
  C69      1.0000 0.75155  0.26255  0.38796  Biso   1.000  C
  C70      1.0000 0.75278  0.37551  0.26246  Biso   1.000  C
  C71      1.0000 0.66436  0.39744  0.69578  Biso   1.000  C
  C72      1.0000 0.72258  0.33799  0.75198  Biso   1.000  C
  C73      1.0000 0.74990  0.26415  0.77810  Biso   1.000  C
  C74      1.0000 0.75275  0.37305  0.77993  Biso   1.000  C
  C75      1.0000 0.25052  0.37498  0.77769  Biso   1.000  C
  C76      1.0000 0.17566  0.90429  0.18288  Biso   1.000  C
  C77      1.0000 0.23469  0.84362  0.24508  Biso   1.000  C
  C78      1.0000 0.30734  0.81832  0.20910  Biso   1.000  C
  C79      1.0000 0.19435  0.81710  0.33461  Biso   1.000  C
  C80      1.0000 0.17243  0.90552  0.90128  Biso   1.000  C
  C81      1.0000 0.23187  0.84730  0.84508  Biso   1.000  C
  C82      1.0000 0.30574  0.81997  0.81897  Biso   1.000  C
  C83      1.0000 0.19682  0.81712  0.81714  Biso   1.000  C
  C84      1.0000 0.19489  0.31935  0.81937  Biso   1.000  C
  C85      1.0000 0.89279  0.90347  0.18979  Biso   1.000  C
  C86      1.0000 0.83467  0.84535  0.24284  Biso   1.000  C
  C87      1.0000 0.80704  0.81771  0.20677  Biso   1.000  C
  C88      1.0000 0.80581  0.81649  0.33583  Biso   1.000  C
  C89      1.0000 0.17060  0.18128  0.90941  Biso   1.000  C
  C90      1.0000 0.23329  0.24398  0.84498  Biso   1.000  C
  C91      1.0000 0.66640  0.67708  0.40727  Biso   1.000  C
  C92      1.0000 0.72453  0.73520  0.35422  Biso   1.000  C
  C93      1.0000 0.75216  0.76284  0.39030  Biso   1.000  C
  C94      1.0000 0.75339  0.76406  0.26124  Biso   1.000  C
  C95      1.0000 0.38860  0.39927  0.68765  Biso   1.000  C
  C96      1.0000 0.32591  0.33657  0.75208  Biso   1.000  C
  O27      1.0000 0.91331  0.09957  0.22953  Biso   1.000  O
  O28      1.0000 0.91545  0.23096  0.09732  Biso   1.000  O
  O29      1.0000 0.91191  0.09857  0.92821  Biso   1.000  O
  O30      1.0000 0.91485  0.22792  0.92415  Biso   1.000  O
  O31      1.0000 0.21733  0.09756  0.92699  Biso   1.000  O
  O32      1.0000 0.47031  0.65656  0.36754  Biso   1.000  O
  O33      1.0000 0.33892  0.65441  0.49975  Biso   1.000  O
  O34      1.0000 0.47131  0.65796  0.66885  Biso   1.000  O
  O35      1.0000 0.34196  0.65502  0.67292  Biso   1.000  O
  O36      1.0000 0.47233  0.35253  0.67007  Biso   1.000  O
  O37      1.0000 0.64588  0.48098  0.36754  Biso   1.000  O
  O38      1.0000 0.64374  0.34959  0.49975  Biso   1.000  O
  O39      1.0000 0.64729  0.48198  0.66885  Biso   1.000  O
  O40      1.0000 0.64434  0.35263  0.67292  Biso   1.000  O
  O41      1.0000 0.34186  0.48299  0.67007  Biso   1.000  O
  O42      1.0000 0.08889  0.92400  0.22953  Biso   1.000  O
  O43      1.0000 0.22027  0.92614  0.09732  Biso   1.000  O
  O44      1.0000 0.08789  0.92259  0.92821  Biso   1.000  O
  O45      1.0000 0.21723  0.92554  0.92415  Biso   1.000  O
  O46      1.0000 0.08687  0.22802  0.92699  Biso   1.000  O
  O47      1.0000 0.03383  0.04451  0.04478  Biso   1.000  O
  O48      1.0000 0.91433  0.92501  0.22882  Biso   1.000  O
  O49      1.0000 0.91200  0.92268  0.10545  Biso   1.000  O
  O50      1.0000 0.52537  0.53604  0.55229  Biso   1.000  O
  O51      1.0000 0.64487  0.65554  0.36825  Biso   1.000  O
  O52      1.0000 0.64720  0.65787  0.49162  Biso   1.000  O
