data_image0
_cell_length_a       18.1065
_cell_length_b       18.1065
_cell_length_c       18.1065
_cell_angle_alpha    60
_cell_angle_beta     60
_cell_angle_gamma    60

_symmetry_space_group_name_H-M    "P 1"
_symmetry_int_tables_number       1

loop_
  _symmetry_equiv_pos_as_xyz
  'x, y, z'

loop_
  _atom_site_label
  _atom_site_occupancy
  _atom_site_fract_x
  _atom_site_fract_y
  _atom_site_fract_z
  _atom_site_thermal_displace_type
  _atom_site_B_iso_or_equiv
  _atom_site_type_symbol
  Zn1      1.0000 0.79354  0.61938  0.79354  Biso   1.000  Zn
  Zn2      1.0000 0.61938  0.79354  0.79354  Biso   1.000  Zn
  Zn3      1.0000 0.20646  0.20646  0.38062  Biso   1.000  Zn
  Zn4      1.0000 0.79354  0.79354  0.79354  Biso   1.000  Zn
  Zn5      1.0000 0.20646  0.38062  0.20646  Biso   1.000  Zn
  Zn6      1.0000 0.20646  0.20646  0.20646  Biso   1.000  Zn
  Zn7      1.0000 0.38062  0.20646  0.20646  Biso   1.000  Zn
  Zn8      1.0000 0.79354  0.79354  0.61938  Biso   1.000  Zn
  C1       1.0000 0.41290  0.53690  0.02510  Biso   1.000  C
  C2       1.0000 0.97490  0.46310  0.97490  Biso   1.000  C
  C3       1.0000 0.53690  0.02510  0.02510  Biso   1.000  C
  C4       1.0000 0.94610  0.55390  0.55390  Biso   1.000  C
  C5       1.0000 0.41290  0.02510  0.53690  Biso   1.000  C
  C6       1.0000 0.55390  0.55390  0.94610  Biso   1.000  C
  C7       1.0000 0.38730  0.38730  0.11270  Biso   1.000  C
  C8       1.0000 0.46310  0.58710  0.97490  Biso   1.000  C
  C9       1.0000 0.58710  0.46310  0.97490  Biso   1.000  C
  C10      1.0000 0.94610  0.94610  0.55390  Biso   1.000  C
  C11      1.0000 0.94610  0.55390  0.94610  Biso   1.000  C
  C12      1.0000 0.02510  0.53690  0.41290  Biso   1.000  C
  C13      1.0000 0.02510  0.41290  0.02510  Biso   1.000  C
  C14      1.0000 0.88730  0.61270  0.88730  Biso   1.000  C
  C15      1.0000 0.61270  0.88730  0.61270  Biso   1.000  C
  C16      1.0000 0.38730  0.11270  0.11270  Biso   1.000  C
  C17      1.0000 0.61270  0.88730  0.88730  Biso   1.000  C
  C18      1.0000 0.61270  0.61270  0.88730  Biso   1.000  C
  C19      1.0000 0.53690  0.41290  0.02510  Biso   1.000  C
  C20      1.0000 0.58710  0.97490  0.97490  Biso   1.000  C
  C21      1.0000 0.11270  0.38730  0.11270  Biso   1.000  C
  C22      1.0000 0.46310  0.97490  0.97490  Biso   1.000  C
  C23      1.0000 0.02510  0.41290  0.53690  Biso   1.000  C
  C24      1.0000 0.88730  0.88730  0.61270  Biso   1.000  C
  C25      1.0000 0.46310  0.97490  0.58710  Biso   1.000  C
  C26      1.0000 0.38730  0.11270  0.38730  Biso   1.000  C
  C27      1.0000 0.05390  0.44610  0.05390  Biso   1.000  C
  C28      1.0000 0.41290  0.02510  0.02510  Biso   1.000  C
  C29      1.0000 0.97490  0.97490  0.46310  Biso   1.000  C
  C30      1.0000 0.88730  0.61270  0.61270  Biso   1.000  C
  C31      1.0000 0.53690  0.02510  0.41290  Biso   1.000  C
  C32      1.0000 0.97490  0.97490  0.58710  Biso   1.000  C
  C33      1.0000 0.44610  0.05390  0.44610  Biso   1.000  C
  C34      1.0000 0.02510  0.53690  0.02510  Biso   1.000  C
  C35      1.0000 0.02510  0.02510  0.41290  Biso   1.000  C
  C36      1.0000 0.11270  0.38730  0.38730  Biso   1.000  C
  C37      1.0000 0.02510  0.02510  0.53690  Biso   1.000  C
  C38      1.0000 0.97490  0.46310  0.58710  Biso   1.000  C
  C39      1.0000 0.97490  0.58710  0.46310  Biso   1.000  C
  C40      1.0000 0.55390  0.94610  0.94610  Biso   1.000  C
  C41      1.0000 0.97490  0.58710  0.97490  Biso   1.000  C
  C42      1.0000 0.44610  0.05390  0.05390  Biso   1.000  C
  C43      1.0000 0.05390  0.44610  0.44610  Biso   1.000  C
  C44      1.0000 0.11270  0.11270  0.38730  Biso   1.000  C
  C45      1.0000 0.05390  0.05390  0.44610  Biso   1.000  C
  C46      1.0000 0.55390  0.94610  0.55390  Biso   1.000  C
  C47      1.0000 0.58710  0.97490  0.46310  Biso   1.000  C
  C48      1.0000 0.44610  0.44610  0.05390  Biso   1.000  C
  O1       1.0000 0.13360  0.42978  0.13360  Biso   1.000  O
  O2       1.0000 0.13360  0.42978  0.30302  Biso   1.000  O
  O3       1.0000 0.86640  0.57022  0.86640  Biso   1.000  O
  O4       1.0000 0.30302  0.13360  0.42978  Biso   1.000  O
  O5       1.0000 0.13360  0.13360  0.42978  Biso   1.000  O
  O6       1.0000 0.86640  0.57022  0.69698  Biso   1.000  O
  O7       1.0000 0.69698  0.86640  0.57022  Biso   1.000  O
  O8       1.0000 0.86640  0.86640  0.57022  Biso   1.000  O
  O9       1.0000 0.13360  0.30302  0.13360  Biso   1.000  O
  O10      1.0000 0.42978  0.30302  0.13360  Biso   1.000  O
  O11      1.0000 0.86640  0.69698  0.86640  Biso   1.000  O
  O12      1.0000 0.13360  0.13360  0.30302  Biso   1.000  O
  O13      1.0000 0.69698  0.86640  0.86640  Biso   1.000  O
  O14      1.0000 0.57022  0.69698  0.86640  Biso   1.000  O
  O15      1.0000 0.57022  0.86640  0.86640  Biso   1.000  O
  O16      1.0000 0.13360  0.30302  0.42978  Biso   1.000  O
  O17      1.0000 0.25000  0.25000  0.25000  Biso   1.000  O
  O18      1.0000 0.30302  0.42978  0.13360  Biso   1.000  O
  O19      1.0000 0.69698  0.57022  0.86640  Biso   1.000  O
  O20      1.0000 0.57022  0.86640  0.69698  Biso   1.000  O
  O21      1.0000 0.42978  0.13360  0.13360  Biso   1.000  O
  O22      1.0000 0.86640  0.86640  0.69698  Biso   1.000  O
  O23      1.0000 0.75000  0.75000  0.75000  Biso   1.000  O
  O24      1.0000 0.30302  0.13360  0.13360  Biso   1.000  O
  O25      1.0000 0.86640  0.69698  0.57022  Biso   1.000  O
  O26      1.0000 0.42978  0.13360  0.30302  Biso   1.000  O
  H1       1.0000 0.33611  0.56917  0.04736  Biso   1.000  H
  H2       1.0000 0.95490  0.42685  0.95490  Biso   1.000  H
  H3       1.0000 0.56917  0.04736  0.04736  Biso   1.000  H
  H4       1.0000 0.33611  0.04736  0.56917  Biso   1.000  H
  H5       1.0000 0.43083  0.66389  0.95264  Biso   1.000  H
  H6       1.0000 0.66335  0.42685  0.95490  Biso   1.000  H
  H7       1.0000 0.04736  0.56917  0.33611  Biso   1.000  H
  H8       1.0000 0.04736  0.33611  0.04736  Biso   1.000  H
  H9       1.0000 0.56917  0.33611  0.04736  Biso   1.000  H
  H10      1.0000 0.66389  0.95264  0.95264  Biso   1.000  H
  H11      1.0000 0.43083  0.95264  0.95264  Biso   1.000  H
  H12      1.0000 0.04736  0.33611  0.56917  Biso   1.000  H
  H13      1.0000 0.43083  0.95264  0.66389  Biso   1.000  H
  H14      1.0000 0.33611  0.04736  0.04736  Biso   1.000  H
  H15      1.0000 0.95490  0.95490  0.42685  Biso   1.000  H
  H16      1.0000 0.57315  0.04510  0.33665  Biso   1.000  H
  H17      1.0000 0.95490  0.95490  0.66335  Biso   1.000  H
  H18      1.0000 0.04510  0.57315  0.04510  Biso   1.000  H
  H19      1.0000 0.04736  0.04736  0.33611  Biso   1.000  H
  H20      1.0000 0.04736  0.04736  0.56917  Biso   1.000  H
  H21      1.0000 0.95490  0.42685  0.66335  Biso   1.000  H
  H22      1.0000 0.95264  0.66389  0.43083  Biso   1.000  H
  H23      1.0000 0.95490  0.66335  0.95490  Biso   1.000  H
  H24      1.0000 0.66389  0.95264  0.43083  Biso   1.000  H
  Zn9      1.0000 0.43015  0.54348  0.47337  Biso   1.000  Zn
  Zn10     1.0000 0.01724  0.13057  0.88556  Biso   1.000  Zn
  Zn11     1.0000 0.19233  0.95548  0.88556  Biso   1.000  Zn
  Zn12     1.0000 0.60524  0.36839  0.47337  Biso   1.000  Zn
  Zn13     1.0000 0.60532  0.54356  0.29807  Biso   1.000  Zn
  Zn14     1.0000 0.60506  0.54330  0.47350  Biso   1.000  Zn
  Zn15     1.0000 0.01716  0.95540  0.06087  Biso   1.000  Zn
  Zn16     1.0000 0.01742  0.95566  0.88543  Biso   1.000  Zn
  H25      1.0000 0.46625  0.70149  0.11285  Biso   1.000  H
  H26      1.0000 0.24377  0.69993  0.33584  Biso   1.000  H
  H27      1.0000 0.24176  0.40591  0.62899  Biso   1.000  H
  H28      1.0000 0.85923  0.09448  0.24608  Biso   1.000  H
  H29      1.0000 0.86079  0.31695  0.02310  Biso   1.000  H
  H30      1.0000 0.15481  0.31896  0.72994  Biso   1.000  H
  H31      1.0000 0.15623  0.79747  0.24608  Biso   1.000  H
  H32      1.0000 0.37871  0.79903  0.02310  Biso   1.000  H
  H33      1.0000 0.38072  0.09305  0.72994  Biso   1.000  H
  H34      1.0000 0.76325  0.40448  0.11285  Biso   1.000  H
  H35      1.0000 0.76169  0.18201  0.33584  Biso   1.000  H
  H36      1.0000 0.46767  0.18000  0.62899  Biso   1.000  H
  C49      1.0000 0.43311  0.63238  0.29356  Biso   1.000  C
  C50      1.0000 0.36326  0.69744  0.23379  Biso   1.000  C
  C51      1.0000 0.40229  0.72307  0.13944  Biso   1.000  C
  C52      1.0000 0.27106  0.72162  0.27207  Biso   1.000  C
  C53      1.0000 0.42950  0.63176  0.56153  Biso   1.000  C
  C54      1.0000 0.26804  0.34225  0.65288  Biso   1.000  C
  C55      1.0000 0.92834  0.12761  0.06537  Biso   1.000  C
  C56      1.0000 0.86328  0.19746  0.12514  Biso   1.000  C
  C57      1.0000 0.83765  0.15843  0.21950  Biso   1.000  C
  C58      1.0000 0.83910  0.28966  0.08686  Biso   1.000  C
  C59      1.0000 0.92895  0.13122  0.79741  Biso   1.000  C
  C60      1.0000 0.21847  0.29268  0.70605  Biso   1.000  C
  C61      1.0000 0.18937  0.86658  0.06537  Biso   1.000  C
  C62      1.0000 0.25922  0.80152  0.12514  Biso   1.000  C
  C63      1.0000 0.22019  0.77589  0.21950  Biso   1.000  C
  C64      1.0000 0.35142  0.77734  0.08686  Biso   1.000  C
  C65      1.0000 0.19298  0.86720  0.79741  Biso   1.000  C
  C66      1.0000 0.35444  0.15671  0.70605  Biso   1.000  C
  C67      1.0000 0.69414  0.37135  0.29356  Biso   1.000  C
  C68      1.0000 0.75920  0.30150  0.23379  Biso   1.000  C
  C69      1.0000 0.78483  0.34052  0.13944  Biso   1.000  C
  C70      1.0000 0.78338  0.20930  0.27207  Biso   1.000  C
  C71      1.0000 0.69353  0.36774  0.56153  Biso   1.000  C
  C72      1.0000 0.40401  0.20628  0.65288  Biso   1.000  C
  C73      1.0000 0.69444  0.63268  0.29366  Biso   1.000  C
  C74      1.0000 0.42840  0.36664  0.56063  Biso   1.000  C
  C75      1.0000 0.36304  0.30128  0.62999  Biso   1.000  C
  C76      1.0000 0.92804  0.86628  0.06527  Biso   1.000  C
  C77      1.0000 0.19408  0.13232  0.79831  Biso   1.000  C
  C78      1.0000 0.25944  0.19768  0.72894  Biso   1.000  C
  O27      1.0000 0.51126  0.61599  0.24938  Biso   1.000  O
  O28      1.0000 0.38094  0.61678  0.37692  Biso   1.000  O
  O29      1.0000 0.51105  0.61617  0.54513  Biso   1.000  O
  O30      1.0000 0.37953  0.61637  0.54523  Biso   1.000  O
  O31      1.0000 0.37983  0.44879  0.54683  Biso   1.000  O
  O32      1.0000 0.94473  0.04946  0.10955  Biso   1.000  O
  O33      1.0000 0.94393  0.17978  0.98202  Biso   1.000  O
  O34      1.0000 0.94454  0.04967  0.81380  Biso   1.000  O
  O35      1.0000 0.94434  0.18119  0.81370  Biso   1.000  O
  O36      1.0000 0.11193  0.18089  0.81210  Biso   1.000  O
  O37      1.0000 0.11122  0.88297  0.10955  Biso   1.000  O
  O38      1.0000 0.24154  0.88218  0.98202  Biso   1.000  O
  O39      1.0000 0.11143  0.88278  0.81380  Biso   1.000  O
  O40      1.0000 0.24295  0.88258  0.81370  Biso   1.000  O
  O41      1.0000 0.24265  0.05017  0.81210  Biso   1.000  O
  O42      1.0000 0.67775  0.44950  0.24938  Biso   1.000  O
  O43      1.0000 0.67855  0.31918  0.37692  Biso   1.000  O
  O44      1.0000 0.67794  0.44928  0.54513  Biso   1.000  O
  O45      1.0000 0.67814  0.31777  0.54523  Biso   1.000  O
  O46      1.0000 0.51055  0.31807  0.54683  Biso   1.000  O
  O47      1.0000 0.56012  0.49836  0.43079  Biso   1.000  O
  O48      1.0000 0.67765  0.61589  0.24788  Biso   1.000  O
  O49      1.0000 0.67755  0.61578  0.37872  Biso   1.000  O
  O50      1.0000 0.06236  0.00060  0.92814  Biso   1.000  O
  O51      1.0000 0.94483  0.88307  0.11105  Biso   1.000  O
  O52      1.0000 0.94493  0.88318  0.98022  Biso   1.000  O
