data_image0
_cell_length_a       18.1065
_cell_length_b       18.1065
_cell_length_c       18.1065
_cell_angle_alpha    60
_cell_angle_beta     60
_cell_angle_gamma    60

_symmetry_space_group_name_H-M    "P 1"
_symmetry_int_tables_number       1

loop_
  _symmetry_equiv_pos_as_xyz
  'x, y, z'

loop_
  _atom_site_label
  _atom_site_occupancy
  _atom_site_fract_x
  _atom_site_fract_y
  _atom_site_fract_z
  _atom_site_thermal_displace_type
  _atom_site_B_iso_or_equiv
  _atom_site_type_symbol
  C1       1.0000 0.79354  0.61938  0.79354  Biso   1.000  C
  C2       1.0000 0.61938  0.79354  0.79354  Biso   1.000  C
  C3       1.0000 0.20646  0.20646  0.38062  Biso   1.000  C
  C4       1.0000 0.79354  0.79354  0.79354  Biso   1.000  C
  C5       1.0000 0.20646  0.38062  0.20646  Biso   1.000  C
  C6       1.0000 0.20646  0.20646  0.20646  Biso   1.000  C
  C7       1.0000 0.38062  0.20646  0.20646  Biso   1.000  C
  C8       1.0000 0.79354  0.79354  0.61938  Biso   1.000  C
  C9       1.0000 0.41290  0.53690  0.02510  Biso   1.000  C
  C10      1.0000 0.97490  0.46310  0.97490  Biso   1.000  C
  C11      1.0000 0.53690  0.02510  0.02510  Biso   1.000  C
  C12      1.0000 0.94610  0.55390  0.55390  Biso   1.000  C
  C13      1.0000 0.41290  0.02510  0.53690  Biso   1.000  C
  C14      1.0000 0.55390  0.55390  0.94610  Biso   1.000  C
  C15      1.0000 0.38730  0.38730  0.11270  Biso   1.000  C
  C16      1.0000 0.46310  0.58710  0.97490  Biso   1.000  C
  C17      1.0000 0.58710  0.46310  0.97490  Biso   1.000  C
  C18      1.0000 0.94610  0.94610  0.55390  Biso   1.000  C
  C19      1.0000 0.94610  0.55390  0.94610  Biso   1.000  C
  C20      1.0000 0.02510  0.53690  0.41290  Biso   1.000  C
  C21      1.0000 0.02510  0.41290  0.02510  Biso   1.000  C
  C22      1.0000 0.88730  0.61270  0.88730  Biso   1.000  C
  C23      1.0000 0.61270  0.88730  0.61270  Biso   1.000  C
  C24      1.0000 0.38730  0.11270  0.11270  Biso   1.000  C
  C25      1.0000 0.61270  0.88730  0.88730  Biso   1.000  C
  C26      1.0000 0.61270  0.61270  0.88730  Biso   1.000  C
  C27      1.0000 0.53690  0.41290  0.02510  Biso   1.000  C
  C28      1.0000 0.58710  0.97490  0.97490  Biso   1.000  C
  C29      1.0000 0.11270  0.38730  0.11270  Biso   1.000  C
  C30      1.0000 0.46310  0.97490  0.97490  Biso   1.000  C
  C31      1.0000 0.02510  0.41290  0.53690  Biso   1.000  C
  C32      1.0000 0.88730  0.88730  0.61270  Biso   1.000  C
  C33      1.0000 0.46310  0.97490  0.58710  Biso   1.000  C
  C34      1.0000 0.38730  0.11270  0.38730  Biso   1.000  C
  C35      1.0000 0.05390  0.44610  0.05390  Biso   1.000  C
  C36      1.0000 0.41290  0.02510  0.02510  Biso   1.000  C
  C37      1.0000 0.97490  0.97490  0.46310  Biso   1.000  C
  C38      1.0000 0.88730  0.61270  0.61270  Biso   1.000  C
  C39      1.0000 0.53690  0.02510  0.41290  Biso   1.000  C
  C40      1.0000 0.97490  0.97490  0.58710  Biso   1.000  C
  C41      1.0000 0.44610  0.05390  0.44610  Biso   1.000  C
  C42      1.0000 0.02510  0.53690  0.02510  Biso   1.000  C
  C43      1.0000 0.02510  0.02510  0.41290  Biso   1.000  C
  C44      1.0000 0.11270  0.38730  0.38730  Biso   1.000  C
  C45      1.0000 0.02510  0.02510  0.53690  Biso   1.000  C
  C46      1.0000 0.97490  0.46310  0.58710  Biso   1.000  C
  C47      1.0000 0.97490  0.58710  0.46310  Biso   1.000  C
  C48      1.0000 0.55390  0.94610  0.94610  Biso   1.000  C
  C49      1.0000 0.97490  0.58710  0.97490  Biso   1.000  C
  C50      1.0000 0.44610  0.05390  0.05390  Biso   1.000  C
  C51      1.0000 0.05390  0.44610  0.44610  Biso   1.000  C
  C52      1.0000 0.11270  0.11270  0.38730  Biso   1.000  C
  C53      1.0000 0.05390  0.05390  0.44610  Biso   1.000  C
  C54      1.0000 0.55390  0.94610  0.55390  Biso   1.000  C
  C55      1.0000 0.58710  0.97490  0.46310  Biso   1.000  C
  C56      1.0000 0.44610  0.44610  0.05390  Biso   1.000  C
  C57      1.0000 0.13360  0.42978  0.13360  Biso   1.000  C
  C58      1.0000 0.13360  0.42978  0.30302  Biso   1.000  C
  C59      1.0000 0.86640  0.57022  0.86640  Biso   1.000  C
  C60      1.0000 0.30302  0.13360  0.42978  Biso   1.000  C
  C61      1.0000 0.13360  0.13360  0.42978  Biso   1.000  C
  C62      1.0000 0.86640  0.57022  0.69698  Biso   1.000  C
  C63      1.0000 0.69698  0.86640  0.57022  Biso   1.000  C
  C64      1.0000 0.86640  0.86640  0.57022  Biso   1.000  C
  C65      1.0000 0.13360  0.30302  0.13360  Biso   1.000  C
  C66      1.0000 0.42978  0.30302  0.13360  Biso   1.000  C
  C67      1.0000 0.86640  0.69698  0.86640  Biso   1.000  C
  C68      1.0000 0.13360  0.13360  0.30302  Biso   1.000  C
  C69      1.0000 0.69698  0.86640  0.86640  Biso   1.000  C
  C70      1.0000 0.57022  0.69698  0.86640  Biso   1.000  C
  C71      1.0000 0.57022  0.86640  0.86640  Biso   1.000  C
  C72      1.0000 0.13360  0.30302  0.42978  Biso   1.000  C
  C73      1.0000 0.25000  0.25000  0.25000  Biso   1.000  C
  C74      1.0000 0.30302  0.42978  0.13360  Biso   1.000  C
  C75      1.0000 0.69698  0.57022  0.86640  Biso   1.000  C
  C76      1.0000 0.57022  0.86640  0.69698  Biso   1.000  C
  C77      1.0000 0.42978  0.13360  0.13360  Biso   1.000  C
  C78      1.0000 0.86640  0.86640  0.69698  Biso   1.000  C
  C79      1.0000 0.75000  0.75000  0.75000  Biso   1.000  C
  C80      1.0000 0.30302  0.13360  0.13360  Biso   1.000  C
  C81      1.0000 0.86640  0.69698  0.57022  Biso   1.000  C
  C82      1.0000 0.42978  0.13360  0.30302  Biso   1.000  C
  C83      1.0000 0.33611  0.56917  0.04736  Biso   1.000  C
  C84      1.0000 0.95490  0.42685  0.95490  Biso   1.000  C
  C85      1.0000 0.56917  0.04736  0.04736  Biso   1.000  C
  C86      1.0000 0.33611  0.04736  0.56917  Biso   1.000  C
  C87      1.0000 0.43083  0.66389  0.95264  Biso   1.000  C
  C88      1.0000 0.66335  0.42685  0.95490  Biso   1.000  C
  C89      1.0000 0.04736  0.56917  0.33611  Biso   1.000  C
  C90      1.0000 0.04736  0.33611  0.04736  Biso   1.000  C
  C91      1.0000 0.56917  0.33611  0.04736  Biso   1.000  C
  C92      1.0000 0.66389  0.95264  0.95264  Biso   1.000  C
  C93      1.0000 0.43083  0.95264  0.95264  Biso   1.000  C
  C94      1.0000 0.04736  0.33611  0.56917  Biso   1.000  C
  C95      1.0000 0.43083  0.95264  0.66389  Biso   1.000  C
  C96      1.0000 0.33611  0.04736  0.04736  Biso   1.000  C
  C97      1.0000 0.95490  0.95490  0.42685  Biso   1.000  C
  C98      1.0000 0.57315  0.04510  0.33665  Biso   1.000  C
  C99      1.0000 0.95490  0.95490  0.66335  Biso   1.000  C
  C100     1.0000 0.04510  0.57315  0.04510  Biso   1.000  C
  C101     1.0000 0.04736  0.04736  0.33611  Biso   1.000  C
  C102     1.0000 0.04736  0.04736  0.56917  Biso   1.000  C
  C103     1.0000 0.95490  0.42685  0.66335  Biso   1.000  C
  C104     1.0000 0.95264  0.66389  0.43083  Biso   1.000  C
  C105     1.0000 0.95490  0.66335  0.95490  Biso   1.000  C
  C106     1.0000 0.66389  0.95264  0.43083  Biso   1.000  C
  O1       1.0000 0.90721  0.75363  0.43912  Biso   1.000  O
  O2       1.0000 0.08443  0.75363  0.26190  Biso   1.000  O
  O3       1.0000 0.90721  0.75363  0.26190  Biso   1.000  O
  O4       1.0000 0.90721  0.93085  0.26190  Biso   1.000  O
  O5       1.0000 0.52451  0.33267  0.66372  Biso   1.000  O
  O6       1.0000 0.34730  0.33267  0.84094  Biso   1.000  O
  O7       1.0000 0.52451  0.15545  0.84094  Biso   1.000  O
  O8       1.0000 0.52451  0.33267  0.84094  Biso   1.000  O
  O9       1.0000 0.06807  0.58881  0.60789  Biso   1.000  O
  O10      1.0000 0.27233  0.58881  0.40363  Biso   1.000  O
  O11      1.0000 0.76152  0.89536  0.09707  Biso   1.000  O
  O12      1.0000 0.76152  0.09962  0.09707  Biso   1.000  O
  O13      1.0000 0.76152  0.09962  0.40363  Biso   1.000  O
  O14      1.0000 0.76152  0.89536  0.60789  Biso   1.000  O
  O15      1.0000 0.06807  0.58881  0.09707  Biso   1.000  O
  O16      1.0000 0.27233  0.58881  0.09707  Biso   1.000  O
  O17      1.0000 0.27233  0.89536  0.09707  Biso   1.000  O
  O18      1.0000 0.06807  0.09962  0.09707  Biso   1.000  O
  O19      1.0000 0.76152  0.58881  0.40363  Biso   1.000  O
  O20      1.0000 0.76152  0.58881  0.60789  Biso   1.000  O
  O21      1.0000 0.36365  0.49749  0.49494  Biso   1.000  O
  O22      1.0000 0.15939  0.49749  0.69920  Biso   1.000  O
  O23      1.0000 0.67020  0.98668  0.00576  Biso   1.000  O
  O24      1.0000 0.67020  0.19094  0.00576  Biso   1.000  O
  O25      1.0000 0.67020  0.49749  0.69920  Biso   1.000  O
  O26      1.0000 0.67020  0.49749  0.49494  Biso   1.000  O
  O27      1.0000 0.36365  0.98668  0.00576  Biso   1.000  O
  O28      1.0000 0.15939  0.19094  0.00576  Biso   1.000  O
  O29      1.0000 0.15939  0.49749  0.00576  Biso   1.000  O
  O30      1.0000 0.36365  0.49749  0.00576  Biso   1.000  O
  O31      1.0000 0.67020  0.98668  0.69920  Biso   1.000  O
  O32      1.0000 0.67020  0.19094  0.49494  Biso   1.000  O
  O33      1.0000 0.13259  0.57028  0.58043  Biso   1.000  O
  O34      1.0000 0.24488  0.57028  0.46814  Biso   1.000  O
  O35      1.0000 0.74299  0.95987  0.07855  Biso   1.000  O
  O36      1.0000 0.74299  0.07217  0.07855  Biso   1.000  O
  O37      1.0000 0.74299  0.07217  0.46814  Biso   1.000  O
  O38      1.0000 0.74299  0.95987  0.58043  Biso   1.000  O
  O39      1.0000 0.13259  0.57028  0.07855  Biso   1.000  O
  O40      1.0000 0.24488  0.57028  0.07855  Biso   1.000  O
  O41      1.0000 0.24488  0.95987  0.07855  Biso   1.000  O
  O42      1.0000 0.13259  0.07217  0.07855  Biso   1.000  O
  O43      1.0000 0.74299  0.57028  0.46814  Biso   1.000  O
  O44      1.0000 0.74299  0.57028  0.58043  Biso   1.000  O
  O45      1.0000 0.29914  0.51602  0.52240  Biso   1.000  O
  O46      1.0000 0.18684  0.51602  0.63469  Biso   1.000  O
  O47      1.0000 0.68873  0.01413  0.02429  Biso   1.000  O
  O48      1.0000 0.68873  0.12643  0.02429  Biso   1.000  O
  O49      1.0000 0.68873  0.51602  0.63469  Biso   1.000  O
  O50      1.0000 0.68873  0.51602  0.52240  Biso   1.000  O
  O51      1.0000 0.29914  0.01413  0.02429  Biso   1.000  O
  O52      1.0000 0.18684  0.12643  0.02429  Biso   1.000  O
  O53      1.0000 0.18684  0.51602  0.02429  Biso   1.000  O
  O54      1.0000 0.29914  0.51602  0.02429  Biso   1.000  O
  O55      1.0000 0.68873  0.01413  0.63469  Biso   1.000  O
  O56      1.0000 0.68873  0.12643  0.52240  Biso   1.000  O
  O57      1.0000 0.09269  0.65675  0.44738  Biso   1.000  O
  O58      1.0000 0.15141  0.59803  0.50610  Biso   1.000  O
  O59      1.0000 0.81033  0.93911  0.16502  Biso   1.000  O
  O60      1.0000 0.75161  0.99784  0.10630  Biso   1.000  O
  O61      1.0000 0.81033  0.93911  0.44738  Biso   1.000  O
  O62      1.0000 0.75161  0.99784  0.50610  Biso   1.000  O
  O63      1.0000 0.09269  0.65675  0.16502  Biso   1.000  O
  O64      1.0000 0.15141  0.59803  0.10630  Biso   1.000  O
  O65      1.0000 0.09269  0.93911  0.16502  Biso   1.000  O
  O66      1.0000 0.15141  0.99784  0.10630  Biso   1.000  O
  O67      1.0000 0.81033  0.65675  0.44738  Biso   1.000  O
  O68      1.0000 0.75161  0.59803  0.50610  Biso   1.000  O
  O69      1.0000 0.33903  0.42955  0.65545  Biso   1.000  O
  O70      1.0000 0.28031  0.48827  0.59673  Biso   1.000  O
  O71      1.0000 0.62139  0.14719  0.93781  Biso   1.000  O
  O72      1.0000 0.68011  0.08846  0.99654  Biso   1.000  O
  O73      1.0000 0.62139  0.42955  0.65545  Biso   1.000  O
  O74      1.0000 0.68011  0.48827  0.59673  Biso   1.000  O
  O75      1.0000 0.33903  0.14719  0.93781  Biso   1.000  O
  O76      1.0000 0.28031  0.08846  0.99654  Biso   1.000  O
  O77      1.0000 0.33903  0.42955  0.93781  Biso   1.000  O
  O78      1.0000 0.28031  0.48827  0.99654  Biso   1.000  O
  O79      1.0000 0.62139  0.14719  0.65545  Biso   1.000  O
  O80      1.0000 0.68011  0.08846  0.59673  Biso   1.000  O
  O81      1.0000 0.95151  0.79793  0.30620  Biso   1.000  O
  O82      1.0000 0.48021  0.28837  0.79663  Biso   1.000  O
  O83      1.0000 0.00791  0.67947  0.48673  Biso   1.000  O
  O84      1.0000 0.13204  0.67947  0.36260  Biso   1.000  O
  O85      1.0000 0.83305  0.85433  0.18774  Biso   1.000  O
  O86      1.0000 0.83305  0.97846  0.18774  Biso   1.000  O
  O87      1.0000 0.83305  0.97846  0.36260  Biso   1.000  O
  O88      1.0000 0.83305  0.85433  0.48673  Biso   1.000  O
  O89      1.0000 0.00791  0.67947  0.18774  Biso   1.000  O
  O90      1.0000 0.13204  0.67947  0.18774  Biso   1.000  O
  O91      1.0000 0.13204  0.85433  0.18774  Biso   1.000  O
  O92      1.0000 0.00791  0.97846  0.18774  Biso   1.000  O
  O93      1.0000 0.83305  0.67947  0.36260  Biso   1.000  O
  O94      1.0000 0.83305  0.67947  0.48673  Biso   1.000  O
  O95      1.0000 0.42381  0.40683  0.61610  Biso   1.000  O
  O96      1.0000 0.29968  0.40683  0.74023  Biso   1.000  O
  O97      1.0000 0.59868  0.10784  0.91510  Biso   1.000  O
  O98      1.0000 0.59868  0.23197  0.91510  Biso   1.000  O
  O99      1.0000 0.59868  0.40683  0.74023  Biso   1.000  O
  O100     1.0000 0.59868  0.40683  0.61610  Biso   1.000  O
  O101     1.0000 0.42381  0.10784  0.91510  Biso   1.000  O
  O102     1.0000 0.29968  0.23197  0.91510  Biso   1.000  O
  O103     1.0000 0.29968  0.40683  0.91510  Biso   1.000  O
  O104     1.0000 0.42381  0.40683  0.91510  Biso   1.000  O
  O105     1.0000 0.59868  0.10784  0.74023  Biso   1.000  O
  O106     1.0000 0.59868  0.23197  0.61610  Biso   1.000  O
