data_image0
_cell_length_a       18.1065
_cell_length_b       18.1065
_cell_length_c       18.1065
_cell_angle_alpha    60
_cell_angle_beta     60
_cell_angle_gamma    60

_symmetry_space_group_name_H-M    "P 1"
_symmetry_int_tables_number       1

loop_
  _symmetry_equiv_pos_as_xyz
  'x, y, z'

loop_
  _atom_site_label
  _atom_site_occupancy
  _atom_site_fract_x
  _atom_site_fract_y
  _atom_site_fract_z
  _atom_site_thermal_displace_type
  _atom_site_B_iso_or_equiv
  _atom_site_type_symbol
  Zn1      1.0000 0.79354  0.61938  0.79354  Biso   1.000  Zn
  Zn2      1.0000 0.61938  0.79354  0.79354  Biso   1.000  Zn
  Zn3      1.0000 0.20646  0.20646  0.38062  Biso   1.000  Zn
  Zn4      1.0000 0.79354  0.79354  0.79354  Biso   1.000  Zn
  Zn5      1.0000 0.20646  0.38062  0.20646  Biso   1.000  Zn
  Zn6      1.0000 0.20646  0.20646  0.20646  Biso   1.000  Zn
  Zn7      1.0000 0.38062  0.20646  0.20646  Biso   1.000  Zn
  Zn8      1.0000 0.79354  0.79354  0.61938  Biso   1.000  Zn
  C1       1.0000 0.41290  0.53690  0.02510  Biso   1.000  C
  C2       1.0000 0.97490  0.46310  0.97490  Biso   1.000  C
  C3       1.0000 0.53690  0.02510  0.02510  Biso   1.000  C
  C4       1.0000 0.94610  0.55390  0.55390  Biso   1.000  C
  C5       1.0000 0.41290  0.02510  0.53690  Biso   1.000  C
  C6       1.0000 0.55390  0.55390  0.94610  Biso   1.000  C
  C7       1.0000 0.38730  0.38730  0.11270  Biso   1.000  C
  C8       1.0000 0.46310  0.58710  0.97490  Biso   1.000  C
  C9       1.0000 0.58710  0.46310  0.97490  Biso   1.000  C
  C10      1.0000 0.94610  0.94610  0.55390  Biso   1.000  C
  C11      1.0000 0.94610  0.55390  0.94610  Biso   1.000  C
  C12      1.0000 0.02510  0.53690  0.41290  Biso   1.000  C
  C13      1.0000 0.02510  0.41290  0.02510  Biso   1.000  C
  C14      1.0000 0.88730  0.61270  0.88730  Biso   1.000  C
  C15      1.0000 0.61270  0.88730  0.61270  Biso   1.000  C
  C16      1.0000 0.38730  0.11270  0.11270  Biso   1.000  C
  C17      1.0000 0.61270  0.88730  0.88730  Biso   1.000  C
  C18      1.0000 0.61270  0.61270  0.88730  Biso   1.000  C
  C19      1.0000 0.53690  0.41290  0.02510  Biso   1.000  C
  C20      1.0000 0.58710  0.97490  0.97490  Biso   1.000  C
  C21      1.0000 0.11270  0.38730  0.11270  Biso   1.000  C
  C22      1.0000 0.46310  0.97490  0.97490  Biso   1.000  C
  C23      1.0000 0.02510  0.41290  0.53690  Biso   1.000  C
  C24      1.0000 0.88730  0.88730  0.61270  Biso   1.000  C
  C25      1.0000 0.46310  0.97490  0.58710  Biso   1.000  C
  C26      1.0000 0.38730  0.11270  0.38730  Biso   1.000  C
  C27      1.0000 0.05390  0.44610  0.05390  Biso   1.000  C
  C28      1.0000 0.41290  0.02510  0.02510  Biso   1.000  C
  C29      1.0000 0.97490  0.97490  0.46310  Biso   1.000  C
  C30      1.0000 0.88730  0.61270  0.61270  Biso   1.000  C
  C31      1.0000 0.53690  0.02510  0.41290  Biso   1.000  C
  C32      1.0000 0.97490  0.97490  0.58710  Biso   1.000  C
  C33      1.0000 0.44610  0.05390  0.44610  Biso   1.000  C
  C34      1.0000 0.02510  0.53690  0.02510  Biso   1.000  C
  C35      1.0000 0.02510  0.02510  0.41290  Biso   1.000  C
  C36      1.0000 0.11270  0.38730  0.38730  Biso   1.000  C
  C37      1.0000 0.02510  0.02510  0.53690  Biso   1.000  C
  C38      1.0000 0.97490  0.46310  0.58710  Biso   1.000  C
  C39      1.0000 0.97490  0.58710  0.46310  Biso   1.000  C
  C40      1.0000 0.55390  0.94610  0.94610  Biso   1.000  C
  C41      1.0000 0.97490  0.58710  0.97490  Biso   1.000  C
  C42      1.0000 0.44610  0.05390  0.05390  Biso   1.000  C
  C43      1.0000 0.05390  0.44610  0.44610  Biso   1.000  C
  C44      1.0000 0.11270  0.11270  0.38730  Biso   1.000  C
  C45      1.0000 0.05390  0.05390  0.44610  Biso   1.000  C
  C46      1.0000 0.55390  0.94610  0.55390  Biso   1.000  C
  C47      1.0000 0.58710  0.97490  0.46310  Biso   1.000  C
  C48      1.0000 0.44610  0.44610  0.05390  Biso   1.000  C
  O1       1.0000 0.13360  0.42978  0.13360  Biso   1.000  O
  O2       1.0000 0.13360  0.42978  0.30302  Biso   1.000  O
  O3       1.0000 0.86640  0.57022  0.86640  Biso   1.000  O
  O4       1.0000 0.30302  0.13360  0.42978  Biso   1.000  O
  O5       1.0000 0.13360  0.13360  0.42978  Biso   1.000  O
  O6       1.0000 0.86640  0.57022  0.69698  Biso   1.000  O
  O7       1.0000 0.69698  0.86640  0.57022  Biso   1.000  O
  O8       1.0000 0.86640  0.86640  0.57022  Biso   1.000  O
  O9       1.0000 0.13360  0.30302  0.13360  Biso   1.000  O
  O10      1.0000 0.42978  0.30302  0.13360  Biso   1.000  O
  O11      1.0000 0.86640  0.69698  0.86640  Biso   1.000  O
  O12      1.0000 0.13360  0.13360  0.30302  Biso   1.000  O
  O13      1.0000 0.69698  0.86640  0.86640  Biso   1.000  O
  O14      1.0000 0.57022  0.69698  0.86640  Biso   1.000  O
  O15      1.0000 0.57022  0.86640  0.86640  Biso   1.000  O
  O16      1.0000 0.13360  0.30302  0.42978  Biso   1.000  O
  O17      1.0000 0.25000  0.25000  0.25000  Biso   1.000  O
  O18      1.0000 0.30302  0.42978  0.13360  Biso   1.000  O
  O19      1.0000 0.69698  0.57022  0.86640  Biso   1.000  O
  O20      1.0000 0.57022  0.86640  0.69698  Biso   1.000  O
  O21      1.0000 0.42978  0.13360  0.13360  Biso   1.000  O
  O22      1.0000 0.86640  0.86640  0.69698  Biso   1.000  O
  O23      1.0000 0.75000  0.75000  0.75000  Biso   1.000  O
  O24      1.0000 0.30302  0.13360  0.13360  Biso   1.000  O
  O25      1.0000 0.86640  0.69698  0.57022  Biso   1.000  O
  O26      1.0000 0.42978  0.13360  0.30302  Biso   1.000  O
  H1       1.0000 0.33611  0.56917  0.04736  Biso   1.000  H
  H2       1.0000 0.95490  0.42685  0.95490  Biso   1.000  H
  H3       1.0000 0.56917  0.04736  0.04736  Biso   1.000  H
  H4       1.0000 0.33611  0.04736  0.56917  Biso   1.000  H
  H5       1.0000 0.43083  0.66389  0.95264  Biso   1.000  H
  H6       1.0000 0.66335  0.42685  0.95490  Biso   1.000  H
  H7       1.0000 0.04736  0.56917  0.33611  Biso   1.000  H
  H8       1.0000 0.04736  0.33611  0.04736  Biso   1.000  H
  H9       1.0000 0.56917  0.33611  0.04736  Biso   1.000  H
  H10      1.0000 0.66389  0.95264  0.95264  Biso   1.000  H
  H11      1.0000 0.43083  0.95264  0.95264  Biso   1.000  H
  H12      1.0000 0.04736  0.33611  0.56917  Biso   1.000  H
  H13      1.0000 0.43083  0.95264  0.66389  Biso   1.000  H
  H14      1.0000 0.33611  0.04736  0.04736  Biso   1.000  H
  H15      1.0000 0.95490  0.95490  0.42685  Biso   1.000  H
  H16      1.0000 0.57315  0.04510  0.33665  Biso   1.000  H
  H17      1.0000 0.95490  0.95490  0.66335  Biso   1.000  H
  H18      1.0000 0.04510  0.57315  0.04510  Biso   1.000  H
  H19      1.0000 0.04736  0.04736  0.33611  Biso   1.000  H
  H20      1.0000 0.04736  0.04736  0.56917  Biso   1.000  H
  H21      1.0000 0.95490  0.42685  0.66335  Biso   1.000  H
  H22      1.0000 0.95264  0.66389  0.43083  Biso   1.000  H
  H23      1.0000 0.95490  0.66335  0.95490  Biso   1.000  H
  H24      1.0000 0.66389  0.95264  0.43083  Biso   1.000  H
  Zn9      1.0000 0.16701  0.00000  0.00000  Biso   1.000  Zn
  Zn10     1.0000 0.57015  0.40312  0.59692  Biso   1.000  Zn
  Zn11     1.0000 0.39298  0.58029  0.59692  Biso   1.000  Zn
  Zn12     1.0000 0.98984  0.17716  0.00000  Biso   1.000  Zn
  Zn13     1.0000 0.98964  0.99980  0.17732  Biso   1.000  Zn
  Zn14     1.0000 0.98977  0.99993  0.99979  Biso   1.000  Zn
  Zn15     1.0000 0.57035  0.58049  0.41960  Biso   1.000  Zn
  Zn16     1.0000 0.57022  0.58036  0.59714  Biso   1.000  Zn
  H25      1.0000 0.82451  0.34694  0.14369  Biso   1.000  H
  H26      1.0000 0.82134  0.14343  0.36106  Biso   1.000  H
  H27      1.0000 0.82819  0.34492  0.83627  Biso   1.000  H
  H28      1.0000 0.82767  0.14224  0.83089  Biso   1.000  H
  H29      1.0000 0.33590  0.14285  0.83810  Biso   1.000  H
  H30      1.0000 0.22319  0.74563  0.45324  Biso   1.000  H
  H31      1.0000 0.42672  0.74879  0.23586  Biso   1.000  H
  H32      1.0000 0.22521  0.74196  0.76065  Biso   1.000  H
  H33      1.0000 0.42791  0.74246  0.76604  Biso   1.000  H
  H34      1.0000 0.42729  0.23425  0.75882  Biso   1.000  H
  H35      1.0000 0.73548  0.23335  0.45324  Biso   1.000  H
  H36      1.0000 0.73865  0.43685  0.23586  Biso   1.000  H
  H37      1.0000 0.73180  0.23537  0.76065  Biso   1.000  H
  H38      1.0000 0.73232  0.43805  0.76604  Biso   1.000  H
  H39      1.0000 0.22409  0.43744  0.75882  Biso   1.000  H
  H40      1.0000 0.33680  0.83466  0.14369  Biso   1.000  H
  H41      1.0000 0.13327  0.83149  0.36106  Biso   1.000  H
  H42      1.0000 0.33478  0.83833  0.83627  Biso   1.000  H
  H43      1.0000 0.13208  0.83782  0.83089  Biso   1.000  H
  H44      1.0000 0.13270  0.34604  0.83810  Biso   1.000  H
  H45      1.0000 0.82583  0.83598  0.14298  Biso   1.000  H
  H46      1.0000 0.82307  0.83322  0.36503  Biso   1.000  H
  H47      1.0000 0.73416  0.74431  0.45395  Biso   1.000  H
  H48      1.0000 0.73692  0.74706  0.23190  Biso   1.000  H
  C49      1.0000 0.89359  0.18703  0.18302  Biso   1.000  C
  C50      1.0000 0.83384  0.24494  0.24440  Biso   1.000  C
  C51      1.0000 0.80734  0.32001  0.20700  Biso   1.000  C
  C52      1.0000 0.80549  0.20663  0.33505  Biso   1.000  C
  C53      1.0000 0.89402  0.18583  0.90192  Biso   1.000  C
  C54      1.0000 0.83722  0.24243  0.84410  Biso   1.000  C
  C55      1.0000 0.80898  0.31881  0.81849  Biso   1.000  C
  C56      1.0000 0.80857  0.20524  0.81503  Biso   1.000  C
  C57      1.0000 0.30918  0.20595  0.81828  Biso   1.000  C
  C58      1.0000 0.38312  0.67654  0.41391  Biso   1.000  C
  C59      1.0000 0.32521  0.73629  0.35253  Biso   1.000  C
  C60      1.0000 0.25012  0.76281  0.38992  Biso   1.000  C
  C61      1.0000 0.36352  0.76464  0.26188  Biso   1.000  C
  C62      1.0000 0.38432  0.67612  0.69500  Biso   1.000  C
  C63      1.0000 0.32772  0.73291  0.75283  Biso   1.000  C
  C64      1.0000 0.25132  0.76116  0.77844  Biso   1.000  C
  C65      1.0000 0.36491  0.76157  0.78189  Biso   1.000  C
  C66      1.0000 0.36419  0.26097  0.77864  Biso   1.000  C
  C67      1.0000 0.66640  0.39326  0.41391  Biso   1.000  C
  C68      1.0000 0.72615  0.33534  0.35253  Biso   1.000  C
  C69      1.0000 0.75265  0.26028  0.38992  Biso   1.000  C
  C70      1.0000 0.75450  0.37365  0.26188  Biso   1.000  C
  C71      1.0000 0.66597  0.39446  0.69500  Biso   1.000  C
  C72      1.0000 0.72277  0.33786  0.75283  Biso   1.000  C
  C73      1.0000 0.75101  0.26148  0.77844  Biso   1.000  C
  C74      1.0000 0.75142  0.37505  0.78189  Biso   1.000  C
  C75      1.0000 0.25081  0.37434  0.77864  Biso   1.000  C
  C76      1.0000 0.17687  0.90375  0.18302  Biso   1.000  C
  C77      1.0000 0.23478  0.84400  0.24440  Biso   1.000  C
  C78      1.0000 0.30987  0.81748  0.20700  Biso   1.000  C
  C79      1.0000 0.19647  0.81564  0.33505  Biso   1.000  C
  C80      1.0000 0.17567  0.90417  0.90192  Biso   1.000  C
  C81      1.0000 0.23227  0.84737  0.84410  Biso   1.000  C
  C82      1.0000 0.30867  0.81913  0.81849  Biso   1.000  C
  C83      1.0000 0.19508  0.81872  0.81503  Biso   1.000  C
  C84      1.0000 0.19580  0.31932  0.81828  Biso   1.000  C
  C85      1.0000 0.89187  0.90202  0.18972  Biso   1.000  C
  C86      1.0000 0.83486  0.84501  0.24358  Biso   1.000  C
  C87      1.0000 0.80784  0.81799  0.20598  Biso   1.000  C
  C88      1.0000 0.80539  0.81554  0.33708  Biso   1.000  C
  C89      1.0000 0.17272  0.18288  0.90721  Biso   1.000  C
  C90      1.0000 0.23389  0.24405  0.84420  Biso   1.000  C
  C91      1.0000 0.66812  0.67827  0.40720  Biso   1.000  C
  C92      1.0000 0.72513  0.73527  0.35334  Biso   1.000  C
  C93      1.0000 0.75215  0.76230  0.39094  Biso   1.000  C
  C94      1.0000 0.75460  0.76474  0.25984  Biso   1.000  C
  C95      1.0000 0.38727  0.39741  0.68972  Biso   1.000  C
  C96      1.0000 0.32610  0.33624  0.75272  Biso   1.000  C
  O27      1.0000 0.91401  0.09995  0.22722  Biso   1.000  O
  O28      1.0000 0.91646  0.22819  0.09897  Biso   1.000  O
  O29      1.0000 0.91373  0.09885  0.92763  Biso   1.000  O
  O30      1.0000 0.91596  0.22667  0.92479  Biso   1.000  O
  O31      1.0000 0.21580  0.09854  0.92712  Biso   1.000  O
  O32      1.0000 0.47020  0.65612  0.36970  Biso   1.000  O
  O33      1.0000 0.34196  0.65367  0.49795  Biso   1.000  O
  O34      1.0000 0.47130  0.65641  0.66929  Biso   1.000  O
  O35      1.0000 0.34348  0.65417  0.67214  Biso   1.000  O
  O36      1.0000 0.47160  0.35433  0.66980  Biso   1.000  O
  O37      1.0000 0.64598  0.48034  0.36970  Biso   1.000  O
  O38      1.0000 0.64353  0.35210  0.49795  Biso   1.000  O
  O39      1.0000 0.64626  0.48144  0.66929  Biso   1.000  O
  O40      1.0000 0.64403  0.35361  0.67214  Biso   1.000  O
  O41      1.0000 0.34419  0.48174  0.66980  Biso   1.000  O
  O42      1.0000 0.08979  0.92417  0.22722  Biso   1.000  O
  O43      1.0000 0.21803  0.92661  0.09897  Biso   1.000  O
  O44      1.0000 0.08869  0.92388  0.92763  Biso   1.000  O
  O45      1.0000 0.21651  0.92611  0.92479  Biso   1.000  O
  O46      1.0000 0.08839  0.22596  0.92712  Biso   1.000  O
  O47      1.0000 0.03392  0.04408  0.04460  Biso   1.000  O
  O48      1.0000 0.91544  0.92559  0.22621  Biso   1.000  O
  O49      1.0000 0.91382  0.92397  0.10375  Biso   1.000  O
  O50      1.0000 0.52607  0.53621  0.55232  Biso   1.000  O
  O51      1.0000 0.64455  0.65470  0.37072  Biso   1.000  O
  O52      1.0000 0.64617  0.65631  0.49317  Biso   1.000  O
