data_image0
_cell_length_a       18.1065
_cell_length_b       18.1065
_cell_length_c       18.1065
_cell_angle_alpha    60
_cell_angle_beta     60
_cell_angle_gamma    60

_symmetry_space_group_name_H-M    "P 1"
_symmetry_int_tables_number       1

loop_
  _symmetry_equiv_pos_as_xyz
  'x, y, z'

loop_
  _atom_site_label
  _atom_site_occupancy
  _atom_site_fract_x
  _atom_site_fract_y
  _atom_site_fract_z
  _atom_site_thermal_displace_type
  _atom_site_B_iso_or_equiv
  _atom_site_type_symbol
  Zn1      1.0000 0.79354  0.61938  0.79354  Biso   1.000  Zn
  Zn2      1.0000 0.61938  0.79354  0.79354  Biso   1.000  Zn
  Zn3      1.0000 0.20646  0.20646  0.38062  Biso   1.000  Zn
  Zn4      1.0000 0.79354  0.79354  0.79354  Biso   1.000  Zn
  Zn5      1.0000 0.20646  0.38062  0.20646  Biso   1.000  Zn
  Zn6      1.0000 0.20646  0.20646  0.20646  Biso   1.000  Zn
  Zn7      1.0000 0.38062  0.20646  0.20646  Biso   1.000  Zn
  Zn8      1.0000 0.79354  0.79354  0.61938  Biso   1.000  Zn
  C1       1.0000 0.41290  0.53690  0.02510  Biso   1.000  C
  C2       1.0000 0.97490  0.46310  0.97490  Biso   1.000  C
  C3       1.0000 0.53690  0.02510  0.02510  Biso   1.000  C
  C4       1.0000 0.94610  0.55390  0.55390  Biso   1.000  C
  C5       1.0000 0.41290  0.02510  0.53690  Biso   1.000  C
  C6       1.0000 0.55390  0.55390  0.94610  Biso   1.000  C
  C7       1.0000 0.38730  0.38730  0.11270  Biso   1.000  C
  C8       1.0000 0.46310  0.58710  0.97490  Biso   1.000  C
  C9       1.0000 0.58710  0.46310  0.97490  Biso   1.000  C
  C10      1.0000 0.94610  0.94610  0.55390  Biso   1.000  C
  C11      1.0000 0.94610  0.55390  0.94610  Biso   1.000  C
  C12      1.0000 0.02510  0.53690  0.41290  Biso   1.000  C
  C13      1.0000 0.02510  0.41290  0.02510  Biso   1.000  C
  C14      1.0000 0.88730  0.61270  0.88730  Biso   1.000  C
  C15      1.0000 0.61270  0.88730  0.61270  Biso   1.000  C
  C16      1.0000 0.38730  0.11270  0.11270  Biso   1.000  C
  C17      1.0000 0.61270  0.88730  0.88730  Biso   1.000  C
  C18      1.0000 0.61270  0.61270  0.88730  Biso   1.000  C
  C19      1.0000 0.53690  0.41290  0.02510  Biso   1.000  C
  C20      1.0000 0.58710  0.97490  0.97490  Biso   1.000  C
  C21      1.0000 0.11270  0.38730  0.11270  Biso   1.000  C
  C22      1.0000 0.46310  0.97490  0.97490  Biso   1.000  C
  C23      1.0000 0.02510  0.41290  0.53690  Biso   1.000  C
  C24      1.0000 0.88730  0.88730  0.61270  Biso   1.000  C
  C25      1.0000 0.46310  0.97490  0.58710  Biso   1.000  C
  C26      1.0000 0.38730  0.11270  0.38730  Biso   1.000  C
  C27      1.0000 0.05390  0.44610  0.05390  Biso   1.000  C
  C28      1.0000 0.41290  0.02510  0.02510  Biso   1.000  C
  C29      1.0000 0.97490  0.97490  0.46310  Biso   1.000  C
  C30      1.0000 0.88730  0.61270  0.61270  Biso   1.000  C
  C31      1.0000 0.53690  0.02510  0.41290  Biso   1.000  C
  C32      1.0000 0.97490  0.97490  0.58710  Biso   1.000  C
  C33      1.0000 0.44610  0.05390  0.44610  Biso   1.000  C
  C34      1.0000 0.02510  0.53690  0.02510  Biso   1.000  C
  C35      1.0000 0.02510  0.02510  0.41290  Biso   1.000  C
  C36      1.0000 0.11270  0.38730  0.38730  Biso   1.000  C
  C37      1.0000 0.02510  0.02510  0.53690  Biso   1.000  C
  C38      1.0000 0.97490  0.46310  0.58710  Biso   1.000  C
  C39      1.0000 0.97490  0.58710  0.46310  Biso   1.000  C
  C40      1.0000 0.55390  0.94610  0.94610  Biso   1.000  C
  C41      1.0000 0.97490  0.58710  0.97490  Biso   1.000  C
  C42      1.0000 0.44610  0.05390  0.05390  Biso   1.000  C
  C43      1.0000 0.05390  0.44610  0.44610  Biso   1.000  C
  C44      1.0000 0.11270  0.11270  0.38730  Biso   1.000  C
  C45      1.0000 0.05390  0.05390  0.44610  Biso   1.000  C
  C46      1.0000 0.55390  0.94610  0.55390  Biso   1.000  C
  C47      1.0000 0.58710  0.97490  0.46310  Biso   1.000  C
  C48      1.0000 0.44610  0.44610  0.05390  Biso   1.000  C
  O1       1.0000 0.13360  0.42978  0.13360  Biso   1.000  O
  O2       1.0000 0.13360  0.42978  0.30302  Biso   1.000  O
  O3       1.0000 0.86640  0.57022  0.86640  Biso   1.000  O
  O4       1.0000 0.30302  0.13360  0.42978  Biso   1.000  O
  O5       1.0000 0.13360  0.13360  0.42978  Biso   1.000  O
  O6       1.0000 0.86640  0.57022  0.69698  Biso   1.000  O
  O7       1.0000 0.69698  0.86640  0.57022  Biso   1.000  O
  O8       1.0000 0.86640  0.86640  0.57022  Biso   1.000  O
  O9       1.0000 0.13360  0.30302  0.13360  Biso   1.000  O
  O10      1.0000 0.42978  0.30302  0.13360  Biso   1.000  O
  O11      1.0000 0.86640  0.69698  0.86640  Biso   1.000  O
  O12      1.0000 0.13360  0.13360  0.30302  Biso   1.000  O
  O13      1.0000 0.69698  0.86640  0.86640  Biso   1.000  O
  O14      1.0000 0.57022  0.69698  0.86640  Biso   1.000  O
  O15      1.0000 0.57022  0.86640  0.86640  Biso   1.000  O
  O16      1.0000 0.13360  0.30302  0.42978  Biso   1.000  O
  O17      1.0000 0.25000  0.25000  0.25000  Biso   1.000  O
  O18      1.0000 0.30302  0.42978  0.13360  Biso   1.000  O
  O19      1.0000 0.69698  0.57022  0.86640  Biso   1.000  O
  O20      1.0000 0.57022  0.86640  0.69698  Biso   1.000  O
  O21      1.0000 0.42978  0.13360  0.13360  Biso   1.000  O
  O22      1.0000 0.86640  0.86640  0.69698  Biso   1.000  O
  O23      1.0000 0.75000  0.75000  0.75000  Biso   1.000  O
  O24      1.0000 0.30302  0.13360  0.13360  Biso   1.000  O
  O25      1.0000 0.86640  0.69698  0.57022  Biso   1.000  O
  O26      1.0000 0.42978  0.13360  0.30302  Biso   1.000  O
  H1       1.0000 0.33611  0.56917  0.04736  Biso   1.000  H
  H2       1.0000 0.95490  0.42685  0.95490  Biso   1.000  H
  H3       1.0000 0.56917  0.04736  0.04736  Biso   1.000  H
  H4       1.0000 0.33611  0.04736  0.56917  Biso   1.000  H
  H5       1.0000 0.43083  0.66389  0.95264  Biso   1.000  H
  H6       1.0000 0.66335  0.42685  0.95490  Biso   1.000  H
  H7       1.0000 0.04736  0.56917  0.33611  Biso   1.000  H
  H8       1.0000 0.04736  0.33611  0.04736  Biso   1.000  H
  H9       1.0000 0.56917  0.33611  0.04736  Biso   1.000  H
  H10      1.0000 0.66389  0.95264  0.95264  Biso   1.000  H
  H11      1.0000 0.43083  0.95264  0.95264  Biso   1.000  H
  H12      1.0000 0.04736  0.33611  0.56917  Biso   1.000  H
  H13      1.0000 0.43083  0.95264  0.66389  Biso   1.000  H
  H14      1.0000 0.33611  0.04736  0.04736  Biso   1.000  H
  H15      1.0000 0.95490  0.95490  0.42685  Biso   1.000  H
  H16      1.0000 0.57315  0.04510  0.33665  Biso   1.000  H
  H17      1.0000 0.95490  0.95490  0.66335  Biso   1.000  H
  H18      1.0000 0.04510  0.57315  0.04510  Biso   1.000  H
  H19      1.0000 0.04736  0.04736  0.33611  Biso   1.000  H
  H20      1.0000 0.04736  0.04736  0.56917  Biso   1.000  H
  H21      1.0000 0.95490  0.42685  0.66335  Biso   1.000  H
  H22      1.0000 0.95264  0.66389  0.43083  Biso   1.000  H
  H23      1.0000 0.95490  0.66335  0.95490  Biso   1.000  H
  H24      1.0000 0.66389  0.95264  0.43083  Biso   1.000  H
  Zn9      1.0000 0.75596  0.41013  0.41013  Biso   1.000  Zn
  Zn10     1.0000 0.58111  0.41013  0.58498  Biso   1.000  Zn
  Zn11     1.0000 0.58111  0.58498  0.41013  Biso   1.000  Zn
  Zn12     1.0000 0.58111  0.41013  0.41013  Biso   1.000  Zn
  Zn13     1.0000 0.00102  0.99511  0.99511  Biso   1.000  Zn
  Zn14     1.0000 0.17587  0.99511  0.82026  Biso   1.000  Zn
  Zn15     1.0000 0.17587  0.99511  0.99511  Biso   1.000  Zn
  Zn16     1.0000 0.17587  0.82026  0.99511  Biso   1.000  Zn
  H25      1.0000 0.94297  0.24804  0.54730  Biso   1.000  H
  H26      1.0000 0.72317  0.24804  0.76710  Biso   1.000  H
  H27      1.0000 0.42391  0.76710  0.24804  Biso   1.000  H
  H28      1.0000 0.42391  0.54730  0.24804  Biso   1.000  H
  H29      1.0000 0.42391  0.54730  0.76710  Biso   1.000  H
  H30      1.0000 0.42391  0.76710  0.54730  Biso   1.000  H
  H31      1.0000 0.94297  0.24804  0.24804  Biso   1.000  H
  H32      1.0000 0.72317  0.24804  0.24804  Biso   1.000  H
  H33      1.0000 0.72317  0.76710  0.24804  Biso   1.000  H
  H34      1.0000 0.94297  0.54730  0.24804  Biso   1.000  H
  H35      1.0000 0.42391  0.24804  0.76710  Biso   1.000  H
  H36      1.0000 0.42391  0.24804  0.54730  Biso   1.000  H
  H37      1.0000 0.81401  0.15720  0.85794  Biso   1.000  H
  H38      1.0000 0.03381  0.15720  0.63814  Biso   1.000  H
  H39      1.0000 0.33307  0.85794  0.15720  Biso   1.000  H
  H40      1.0000 0.33307  0.63814  0.15720  Biso   1.000  H
  H41      1.0000 0.33307  0.15720  0.63814  Biso   1.000  H
  H42      1.0000 0.33307  0.15720  0.85794  Biso   1.000  H
  H43      1.0000 0.81401  0.85794  0.15720  Biso   1.000  H
  H44      1.0000 0.03381  0.63814  0.15720  Biso   1.000  H
  H45      1.0000 0.03381  0.15720  0.15720  Biso   1.000  H
  H46      1.0000 0.81401  0.15720  0.15720  Biso   1.000  H
  H47      1.0000 0.33307  0.85794  0.63814  Biso   1.000  H
  H48      1.0000 0.33307  0.63814  0.85794  Biso   1.000  H
  C49      1.0000 0.91614  0.22905  0.61211  Biso   1.000  C
  C50      1.0000 0.78798  0.22905  0.74027  Biso   1.000  C
  C51      1.0000 0.40492  0.74027  0.22905  Biso   1.000  C
  C52      1.0000 0.40492  0.61211  0.22905  Biso   1.000  C
  C53      1.0000 0.40492  0.61211  0.74027  Biso   1.000  C
  C54      1.0000 0.40492  0.74027  0.61211  Biso   1.000  C
  C55      1.0000 0.91614  0.22905  0.22905  Biso   1.000  C
  C56      1.0000 0.78798  0.22905  0.22905  Biso   1.000  C
  C57      1.0000 0.78798  0.74027  0.22905  Biso   1.000  C
  C58      1.0000 0.91614  0.61211  0.22905  Biso   1.000  C
  C59      1.0000 0.40492  0.22905  0.74027  Biso   1.000  C
  C60      1.0000 0.40492  0.22905  0.61211  Biso   1.000  C
  C61      1.0000 0.84084  0.17619  0.79313  Biso   1.000  C
  C62      1.0000 0.96900  0.17619  0.66497  Biso   1.000  C
  C63      1.0000 0.35206  0.79313  0.17619  Biso   1.000  C
  C64      1.0000 0.35206  0.66497  0.17619  Biso   1.000  C
  C65      1.0000 0.35206  0.17619  0.66497  Biso   1.000  C
  C66      1.0000 0.35206  0.17619  0.79313  Biso   1.000  C
  C67      1.0000 0.84084  0.79313  0.17619  Biso   1.000  C
  C68      1.0000 0.96900  0.66497  0.17619  Biso   1.000  C
  C69      1.0000 0.96900  0.17619  0.17619  Biso   1.000  C
  C70      1.0000 0.84084  0.17619  0.17619  Biso   1.000  C
  C71      1.0000 0.35206  0.79313  0.66497  Biso   1.000  C
  C72      1.0000 0.35206  0.66497  0.79313  Biso   1.000  C
  C73      1.0000 0.76500  0.31366  0.59403  Biso   1.000  C
  C74      1.0000 0.82198  0.25668  0.65100  Biso   1.000  C
  C75      1.0000 0.48464  0.59403  0.31366  Biso   1.000  C
  C76      1.0000 0.42766  0.65100  0.25668  Biso   1.000  C
  C77      1.0000 0.48464  0.59403  0.59403  Biso   1.000  C
  C78      1.0000 0.42766  0.65100  0.65100  Biso   1.000  C
  C79      1.0000 0.76500  0.31366  0.31366  Biso   1.000  C
  C80      1.0000 0.82198  0.25668  0.25668  Biso   1.000  C
  C81      1.0000 0.76500  0.59403  0.31366  Biso   1.000  C
  C82      1.0000 0.82198  0.65100  0.25668  Biso   1.000  C
  C83      1.0000 0.48464  0.31366  0.59403  Biso   1.000  C
  C84      1.0000 0.42766  0.25668  0.65100  Biso   1.000  C
  C85      1.0000 0.99197  0.09158  0.81122  Biso   1.000  C
  C86      1.0000 0.93500  0.14856  0.75424  Biso   1.000  C
  C87      1.0000 0.27234  0.81122  0.09158  Biso   1.000  C
  C88      1.0000 0.32931  0.75424  0.14856  Biso   1.000  C
  C89      1.0000 0.27234  0.09158  0.81122  Biso   1.000  C
  C90      1.0000 0.32931  0.14856  0.75424  Biso   1.000  C
  C91      1.0000 0.99197  0.81122  0.09158  Biso   1.000  C
  C92      1.0000 0.93500  0.75424  0.14856  Biso   1.000  C
  C93      1.0000 0.99197  0.09158  0.09158  Biso   1.000  C
  C94      1.0000 0.93500  0.14856  0.14856  Biso   1.000  C
  C95      1.0000 0.27234  0.81122  0.81122  Biso   1.000  C
  C96      1.0000 0.32931  0.75424  0.75424  Biso   1.000  C
  O27      1.0000 0.62482  0.45384  0.45384  Biso   1.000  O
  O28      1.0000 0.13215  0.95140  0.95140  Biso   1.000  O
  O29      1.0000 0.80540  0.33718  0.50660  Biso   1.000  O
  O30      1.0000 0.67758  0.33718  0.63442  Biso   1.000  O
  O31      1.0000 0.50815  0.63442  0.33718  Biso   1.000  O
  O32      1.0000 0.50815  0.50660  0.33718  Biso   1.000  O
  O33      1.0000 0.50815  0.50660  0.63442  Biso   1.000  O
  O34      1.0000 0.50815  0.63442  0.50660  Biso   1.000  O
  O35      1.0000 0.80540  0.33718  0.33718  Biso   1.000  O
  O36      1.0000 0.67758  0.33718  0.33718  Biso   1.000  O
  O37      1.0000 0.67758  0.63442  0.33718  Biso   1.000  O
  O38      1.0000 0.80540  0.50660  0.33718  Biso   1.000  O
  O39      1.0000 0.50815  0.33718  0.63442  Biso   1.000  O
  O40      1.0000 0.50815  0.33718  0.50660  Biso   1.000  O
  O41      1.0000 0.95158  0.06807  0.89864  Biso   1.000  O
  O42      1.0000 0.07940  0.06807  0.77082  Biso   1.000  O
  O43      1.0000 0.24882  0.89864  0.06807  Biso   1.000  O
  O44      1.0000 0.24882  0.77082  0.06807  Biso   1.000  O
  O45      1.0000 0.24882  0.06807  0.77082  Biso   1.000  O
  O46      1.0000 0.24882  0.06807  0.89864  Biso   1.000  O
  O47      1.0000 0.95158  0.89864  0.06807  Biso   1.000  O
  O48      1.0000 0.07940  0.77082  0.06807  Biso   1.000  O
  O49      1.0000 0.07940  0.06807  0.06807  Biso   1.000  O
  O50      1.0000 0.95158  0.06807  0.06807  Biso   1.000  O
  O51      1.0000 0.24882  0.89864  0.77082  Biso   1.000  O
  O52      1.0000 0.24882  0.77082  0.89864  Biso   1.000  O
