data_image0
_cell_length_a       18.1065
_cell_length_b       18.1065
_cell_length_c       18.1065
_cell_angle_alpha    60
_cell_angle_beta     60
_cell_angle_gamma    60

_symmetry_space_group_name_H-M    "P 1"
_symmetry_int_tables_number       1

loop_
  _symmetry_equiv_pos_as_xyz
  'x, y, z'

loop_
  _atom_site_label
  _atom_site_occupancy
  _atom_site_fract_x
  _atom_site_fract_y
  _atom_site_fract_z
  _atom_site_thermal_displace_type
  _atom_site_B_iso_or_equiv
  _atom_site_type_symbol
  C1       1.0000 0.79354  0.61938  0.79354  Biso   1.000  C
  C2       1.0000 0.61938  0.79354  0.79354  Biso   1.000  C
  C3       1.0000 0.20646  0.20646  0.38062  Biso   1.000  C
  C4       1.0000 0.79354  0.79354  0.79354  Biso   1.000  C
  C5       1.0000 0.20646  0.38062  0.20646  Biso   1.000  C
  C6       1.0000 0.20646  0.20646  0.20646  Biso   1.000  C
  C7       1.0000 0.38062  0.20646  0.20646  Biso   1.000  C
  C8       1.0000 0.79354  0.79354  0.61938  Biso   1.000  C
  C9       1.0000 0.41290  0.53690  0.02510  Biso   1.000  C
  C10      1.0000 0.97490  0.46310  0.97490  Biso   1.000  C
  C11      1.0000 0.53690  0.02510  0.02510  Biso   1.000  C
  C12      1.0000 0.94610  0.55390  0.55390  Biso   1.000  C
  C13      1.0000 0.41290  0.02510  0.53690  Biso   1.000  C
  C14      1.0000 0.55390  0.55390  0.94610  Biso   1.000  C
  C15      1.0000 0.38730  0.38730  0.11270  Biso   1.000  C
  C16      1.0000 0.46310  0.58710  0.97490  Biso   1.000  C
  C17      1.0000 0.58710  0.46310  0.97490  Biso   1.000  C
  C18      1.0000 0.94610  0.94610  0.55390  Biso   1.000  C
  C19      1.0000 0.94610  0.55390  0.94610  Biso   1.000  C
  C20      1.0000 0.02510  0.53690  0.41290  Biso   1.000  C
  C21      1.0000 0.02510  0.41290  0.02510  Biso   1.000  C
  C22      1.0000 0.88730  0.61270  0.88730  Biso   1.000  C
  C23      1.0000 0.61270  0.88730  0.61270  Biso   1.000  C
  C24      1.0000 0.38730  0.11270  0.11270  Biso   1.000  C
  C25      1.0000 0.61270  0.88730  0.88730  Biso   1.000  C
  C26      1.0000 0.61270  0.61270  0.88730  Biso   1.000  C
  C27      1.0000 0.53690  0.41290  0.02510  Biso   1.000  C
  C28      1.0000 0.58710  0.97490  0.97490  Biso   1.000  C
  C29      1.0000 0.11270  0.38730  0.11270  Biso   1.000  C
  C30      1.0000 0.46310  0.97490  0.97490  Biso   1.000  C
  C31      1.0000 0.02510  0.41290  0.53690  Biso   1.000  C
  C32      1.0000 0.88730  0.88730  0.61270  Biso   1.000  C
  C33      1.0000 0.46310  0.97490  0.58710  Biso   1.000  C
  C34      1.0000 0.38730  0.11270  0.38730  Biso   1.000  C
  C35      1.0000 0.05390  0.44610  0.05390  Biso   1.000  C
  C36      1.0000 0.41290  0.02510  0.02510  Biso   1.000  C
  C37      1.0000 0.97490  0.97490  0.46310  Biso   1.000  C
  C38      1.0000 0.88730  0.61270  0.61270  Biso   1.000  C
  C39      1.0000 0.53690  0.02510  0.41290  Biso   1.000  C
  C40      1.0000 0.97490  0.97490  0.58710  Biso   1.000  C
  C41      1.0000 0.44610  0.05390  0.44610  Biso   1.000  C
  C42      1.0000 0.02510  0.53690  0.02510  Biso   1.000  C
  C43      1.0000 0.02510  0.02510  0.41290  Biso   1.000  C
  C44      1.0000 0.11270  0.38730  0.38730  Biso   1.000  C
  C45      1.0000 0.02510  0.02510  0.53690  Biso   1.000  C
  C46      1.0000 0.97490  0.46310  0.58710  Biso   1.000  C
  C47      1.0000 0.97490  0.58710  0.46310  Biso   1.000  C
  C48      1.0000 0.55390  0.94610  0.94610  Biso   1.000  C
  C49      1.0000 0.97490  0.58710  0.97490  Biso   1.000  C
  C50      1.0000 0.44610  0.05390  0.05390  Biso   1.000  C
  C51      1.0000 0.05390  0.44610  0.44610  Biso   1.000  C
  C52      1.0000 0.11270  0.11270  0.38730  Biso   1.000  C
  C53      1.0000 0.05390  0.05390  0.44610  Biso   1.000  C
  C54      1.0000 0.55390  0.94610  0.55390  Biso   1.000  C
  C55      1.0000 0.58710  0.97490  0.46310  Biso   1.000  C
  C56      1.0000 0.44610  0.44610  0.05390  Biso   1.000  C
  C57      1.0000 0.13360  0.42978  0.13360  Biso   1.000  C
  C58      1.0000 0.13360  0.42978  0.30302  Biso   1.000  C
  C59      1.0000 0.86640  0.57022  0.86640  Biso   1.000  C
  C60      1.0000 0.30302  0.13360  0.42978  Biso   1.000  C
  C61      1.0000 0.13360  0.13360  0.42978  Biso   1.000  C
  C62      1.0000 0.86640  0.57022  0.69698  Biso   1.000  C
  C63      1.0000 0.69698  0.86640  0.57022  Biso   1.000  C
  C64      1.0000 0.86640  0.86640  0.57022  Biso   1.000  C
  C65      1.0000 0.13360  0.30302  0.13360  Biso   1.000  C
  C66      1.0000 0.42978  0.30302  0.13360  Biso   1.000  C
  C67      1.0000 0.86640  0.69698  0.86640  Biso   1.000  C
  C68      1.0000 0.13360  0.13360  0.30302  Biso   1.000  C
  C69      1.0000 0.69698  0.86640  0.86640  Biso   1.000  C
  C70      1.0000 0.57022  0.69698  0.86640  Biso   1.000  C
  C71      1.0000 0.57022  0.86640  0.86640  Biso   1.000  C
  C72      1.0000 0.13360  0.30302  0.42978  Biso   1.000  C
  C73      1.0000 0.25000  0.25000  0.25000  Biso   1.000  C
  C74      1.0000 0.30302  0.42978  0.13360  Biso   1.000  C
  C75      1.0000 0.69698  0.57022  0.86640  Biso   1.000  C
  C76      1.0000 0.57022  0.86640  0.69698  Biso   1.000  C
  C77      1.0000 0.42978  0.13360  0.13360  Biso   1.000  C
  C78      1.0000 0.86640  0.86640  0.69698  Biso   1.000  C
  C79      1.0000 0.75000  0.75000  0.75000  Biso   1.000  C
  C80      1.0000 0.30302  0.13360  0.13360  Biso   1.000  C
  C81      1.0000 0.86640  0.69698  0.57022  Biso   1.000  C
  C82      1.0000 0.42978  0.13360  0.30302  Biso   1.000  C
  C83      1.0000 0.33611  0.56917  0.04736  Biso   1.000  C
  C84      1.0000 0.95490  0.42685  0.95490  Biso   1.000  C
  C85      1.0000 0.56917  0.04736  0.04736  Biso   1.000  C
  C86      1.0000 0.33611  0.04736  0.56917  Biso   1.000  C
  C87      1.0000 0.43083  0.66389  0.95264  Biso   1.000  C
  C88      1.0000 0.66335  0.42685  0.95490  Biso   1.000  C
  C89      1.0000 0.04736  0.56917  0.33611  Biso   1.000  C
  C90      1.0000 0.04736  0.33611  0.04736  Biso   1.000  C
  C91      1.0000 0.56917  0.33611  0.04736  Biso   1.000  C
  C92      1.0000 0.66389  0.95264  0.95264  Biso   1.000  C
  C93      1.0000 0.43083  0.95264  0.95264  Biso   1.000  C
  C94      1.0000 0.04736  0.33611  0.56917  Biso   1.000  C
  C95      1.0000 0.43083  0.95264  0.66389  Biso   1.000  C
  C96      1.0000 0.33611  0.04736  0.04736  Biso   1.000  C
  C97      1.0000 0.95490  0.95490  0.42685  Biso   1.000  C
  C98      1.0000 0.57315  0.04510  0.33665  Biso   1.000  C
  C99      1.0000 0.95490  0.95490  0.66335  Biso   1.000  C
  C100     1.0000 0.04510  0.57315  0.04510  Biso   1.000  C
  C101     1.0000 0.04736  0.04736  0.33611  Biso   1.000  C
  C102     1.0000 0.04736  0.04736  0.56917  Biso   1.000  C
  C103     1.0000 0.95490  0.42685  0.66335  Biso   1.000  C
  C104     1.0000 0.95264  0.66389  0.43083  Biso   1.000  C
  C105     1.0000 0.95490  0.66335  0.95490  Biso   1.000  C
  C106     1.0000 0.66389  0.95264  0.43083  Biso   1.000  C
  O1       1.0000 0.89230  0.88331  0.43494  Biso   1.000  O
  O2       1.0000 0.06773  0.88331  0.25952  Biso   1.000  O
  O3       1.0000 0.89230  0.88331  0.25952  Biso   1.000  O
  O4       1.0000 0.89230  0.05874  0.25952  Biso   1.000  O
  O5       1.0000 0.47405  0.47300  0.67378  Biso   1.000  O
  O6       1.0000 0.29863  0.47300  0.84921  Biso   1.000  O
  O7       1.0000 0.47405  0.29758  0.84921  Biso   1.000  O
  O8       1.0000 0.47405  0.47300  0.84921  Biso   1.000  O
  O9       1.0000 0.72984  0.72085  0.62153  Biso   1.000  O
  O10      1.0000 0.25431  0.02164  0.09705  Biso   1.000  O
  O11      1.0000 0.72984  0.72085  0.39784  Biso   1.000  O
  O12      1.0000 0.03063  0.24532  0.09705  Biso   1.000  O
  O13      1.0000 0.72984  0.24532  0.09705  Biso   1.000  O
  O14      1.0000 0.03063  0.72085  0.62153  Biso   1.000  O
  O15      1.0000 0.72984  0.02164  0.09705  Biso   1.000  O
  O16      1.0000 0.25431  0.72085  0.39784  Biso   1.000  O
  O17      1.0000 0.25431  0.72085  0.09705  Biso   1.000  O
  O18      1.0000 0.72984  0.24532  0.39784  Biso   1.000  O
  O19      1.0000 0.03063  0.72085  0.09705  Biso   1.000  O
  O20      1.0000 0.72984  0.02164  0.62153  Biso   1.000  O
  O21      1.0000 0.63652  0.33468  0.48720  Biso   1.000  O
  O22      1.0000 0.11204  0.63547  0.01167  Biso   1.000  O
  O23      1.0000 0.63652  0.11099  0.71088  Biso   1.000  O
  O24      1.0000 0.33573  0.63547  0.01167  Biso   1.000  O
  O25      1.0000 0.63652  0.33468  0.01167  Biso   1.000  O
  O26      1.0000 0.33573  0.63547  0.48720  Biso   1.000  O
  O27      1.0000 0.63652  0.11099  0.01167  Biso   1.000  O
  O28      1.0000 0.11204  0.63547  0.71088  Biso   1.000  O
  O29      1.0000 0.11204  0.33468  0.01167  Biso   1.000  O
  O30      1.0000 0.63652  0.63547  0.71088  Biso   1.000  O
  O31      1.0000 0.33573  0.11099  0.01167  Biso   1.000  O
  O32      1.0000 0.63652  0.63547  0.48720  Biso   1.000  O
  O33      1.0000 0.71130  0.70231  0.59457  Biso   1.000  O
  O34      1.0000 0.22736  0.08568  0.07851  Biso   1.000  O
  O35      1.0000 0.71130  0.70231  0.46189  Biso   1.000  O
  O36      1.0000 0.09467  0.21837  0.07851  Biso   1.000  O
  O37      1.0000 0.71130  0.21837  0.07851  Biso   1.000  O
  O38      1.0000 0.09467  0.70231  0.59457  Biso   1.000  O
  O39      1.0000 0.71130  0.08568  0.07851  Biso   1.000  O
  O40      1.0000 0.22736  0.70231  0.46189  Biso   1.000  O
  O41      1.0000 0.22736  0.70231  0.07851  Biso   1.000  O
  O42      1.0000 0.71130  0.21837  0.46189  Biso   1.000  O
  O43      1.0000 0.09467  0.70231  0.07851  Biso   1.000  O
  O44      1.0000 0.71130  0.08568  0.59457  Biso   1.000  O
  O45      1.0000 0.65506  0.27063  0.51415  Biso   1.000  O
  O46      1.0000 0.13900  0.65401  0.03021  Biso   1.000  O
  O47      1.0000 0.65506  0.13795  0.64684  Biso   1.000  O
  O48      1.0000 0.27168  0.65401  0.03021  Biso   1.000  O
  O49      1.0000 0.65506  0.27063  0.03021  Biso   1.000  O
  O50      1.0000 0.27168  0.65401  0.51415  Biso   1.000  O
  O51      1.0000 0.65506  0.13795  0.03021  Biso   1.000  O
  O52      1.0000 0.13900  0.65401  0.64684  Biso   1.000  O
  O53      1.0000 0.13900  0.27063  0.03021  Biso   1.000  O
  O54      1.0000 0.65506  0.65401  0.64684  Biso   1.000  O
  O55      1.0000 0.27168  0.13795  0.03021  Biso   1.000  O
  O56      1.0000 0.65506  0.65401  0.51415  Biso   1.000  O
  O57      1.0000 0.73857  0.72958  0.50095  Biso   1.000  O
  O58      1.0000 0.79721  0.78822  0.44232  Biso   1.000  O
  O59      1.0000 0.13374  0.12475  0.10579  Biso   1.000  O
  O60      1.0000 0.07510  0.06611  0.16442  Biso   1.000  O
  O61      1.0000 0.73857  0.12475  0.10579  Biso   1.000  O
  O62      1.0000 0.79721  0.06611  0.16442  Biso   1.000  O
  O63      1.0000 0.13374  0.72958  0.50095  Biso   1.000  O
  O64      1.0000 0.07510  0.78822  0.44232  Biso   1.000  O
  O65      1.0000 0.13374  0.72958  0.10579  Biso   1.000  O
  O66      1.0000 0.07510  0.78822  0.16442  Biso   1.000  O
  O67      1.0000 0.73857  0.12475  0.50095  Biso   1.000  O
  O68      1.0000 0.79721  0.06611  0.44232  Biso   1.000  O
  O69      1.0000 0.62778  0.23157  0.60777  Biso   1.000  O
  O70      1.0000 0.56915  0.29020  0.66640  Biso   1.000  O
  O71      1.0000 0.23262  0.62673  0.00293  Biso   1.000  O
  O72      1.0000 0.29125  0.56810  0.94430  Biso   1.000  O
  O73      1.0000 0.62778  0.23157  0.00293  Biso   1.000  O
  O74      1.0000 0.56915  0.29020  0.94430  Biso   1.000  O
  O75      1.0000 0.23262  0.62673  0.60777  Biso   1.000  O
  O76      1.0000 0.29125  0.56810  0.66640  Biso   1.000  O
  O77      1.0000 0.23262  0.23157  0.00293  Biso   1.000  O
  O78      1.0000 0.29125  0.29020  0.94430  Biso   1.000  O
  O79      1.0000 0.62778  0.62673  0.60777  Biso   1.000  O
  O80      1.0000 0.56915  0.56810  0.66640  Biso   1.000  O
  O81      1.0000 0.93616  0.92717  0.30337  Biso   1.000  O
  O82      1.0000 0.43020  0.42915  0.80535  Biso   1.000  O
  O83      1.0000 0.81934  0.81035  0.48488  Biso   1.000  O
  O84      1.0000 0.11766  0.97928  0.18656  Biso   1.000  O
  O85      1.0000 0.81934  0.81035  0.35548  Biso   1.000  O
  O86      1.0000 0.98827  0.10867  0.18656  Biso   1.000  O
  O87      1.0000 0.81934  0.10867  0.18656  Biso   1.000  O
  O88      1.0000 0.98827  0.81035  0.48488  Biso   1.000  O
  O89      1.0000 0.81934  0.97928  0.18656  Biso   1.000  O
  O90      1.0000 0.11766  0.81035  0.35548  Biso   1.000  O
  O91      1.0000 0.11766  0.81035  0.18656  Biso   1.000  O
  O92      1.0000 0.81934  0.10867  0.35548  Biso   1.000  O
  O93      1.0000 0.98827  0.81035  0.18656  Biso   1.000  O
  O94      1.0000 0.81934  0.97928  0.48488  Biso   1.000  O
  O95      1.0000 0.54701  0.37703  0.62385  Biso   1.000  O
  O96      1.0000 0.24869  0.54596  0.92217  Biso   1.000  O
  O97      1.0000 0.54701  0.24764  0.75324  Biso   1.000  O
  O98      1.0000 0.37809  0.54596  0.92217  Biso   1.000  O
  O99      1.0000 0.54701  0.37703  0.92217  Biso   1.000  O
  O100     1.0000 0.37809  0.54596  0.62385  Biso   1.000  O
  O101     1.0000 0.54701  0.24764  0.92217  Biso   1.000  O
  O102     1.0000 0.24869  0.54596  0.75324  Biso   1.000  O
  O103     1.0000 0.24869  0.37703  0.92217  Biso   1.000  O
  O104     1.0000 0.54701  0.54596  0.75324  Biso   1.000  O
  O105     1.0000 0.37809  0.24764  0.92217  Biso   1.000  O
  O106     1.0000 0.54701  0.54596  0.62385  Biso   1.000  O
