data_image0
_cell_length_a       18.1065
_cell_length_b       18.1065
_cell_length_c       18.1065
_cell_angle_alpha    60
_cell_angle_beta     60
_cell_angle_gamma    60

_symmetry_space_group_name_H-M    "P 1"
_symmetry_int_tables_number       1

loop_
  _symmetry_equiv_pos_as_xyz
  'x, y, z'

loop_
  _atom_site_label
  _atom_site_occupancy
  _atom_site_fract_x
  _atom_site_fract_y
  _atom_site_fract_z
  _atom_site_thermal_displace_type
  _atom_site_B_iso_or_equiv
  _atom_site_type_symbol
  Zn1      1.0000 0.79354  0.61938  0.79354  Biso   1.000  Zn
  Zn2      1.0000 0.61938  0.79354  0.79354  Biso   1.000  Zn
  Zn3      1.0000 0.20646  0.20646  0.38062  Biso   1.000  Zn
  Zn4      1.0000 0.79354  0.79354  0.79354  Biso   1.000  Zn
  Zn5      1.0000 0.20646  0.38062  0.20646  Biso   1.000  Zn
  Zn6      1.0000 0.20646  0.20646  0.20646  Biso   1.000  Zn
  Zn7      1.0000 0.38062  0.20646  0.20646  Biso   1.000  Zn
  Zn8      1.0000 0.79354  0.79354  0.61938  Biso   1.000  Zn
  C1       1.0000 0.41290  0.53690  0.02510  Biso   1.000  C
  C2       1.0000 0.97490  0.46310  0.97490  Biso   1.000  C
  C3       1.0000 0.53690  0.02510  0.02510  Biso   1.000  C
  C4       1.0000 0.94610  0.55390  0.55390  Biso   1.000  C
  C5       1.0000 0.41290  0.02510  0.53690  Biso   1.000  C
  C6       1.0000 0.55390  0.55390  0.94610  Biso   1.000  C
  C7       1.0000 0.38730  0.38730  0.11270  Biso   1.000  C
  C8       1.0000 0.46310  0.58710  0.97490  Biso   1.000  C
  C9       1.0000 0.58710  0.46310  0.97490  Biso   1.000  C
  C10      1.0000 0.94610  0.94610  0.55390  Biso   1.000  C
  C11      1.0000 0.94610  0.55390  0.94610  Biso   1.000  C
  C12      1.0000 0.02510  0.53690  0.41290  Biso   1.000  C
  C13      1.0000 0.02510  0.41290  0.02510  Biso   1.000  C
  C14      1.0000 0.88730  0.61270  0.88730  Biso   1.000  C
  C15      1.0000 0.61270  0.88730  0.61270  Biso   1.000  C
  C16      1.0000 0.38730  0.11270  0.11270  Biso   1.000  C
  C17      1.0000 0.61270  0.88730  0.88730  Biso   1.000  C
  C18      1.0000 0.61270  0.61270  0.88730  Biso   1.000  C
  C19      1.0000 0.53690  0.41290  0.02510  Biso   1.000  C
  C20      1.0000 0.58710  0.97490  0.97490  Biso   1.000  C
  C21      1.0000 0.11270  0.38730  0.11270  Biso   1.000  C
  C22      1.0000 0.46310  0.97490  0.97490  Biso   1.000  C
  C23      1.0000 0.02510  0.41290  0.53690  Biso   1.000  C
  C24      1.0000 0.88730  0.88730  0.61270  Biso   1.000  C
  C25      1.0000 0.46310  0.97490  0.58710  Biso   1.000  C
  C26      1.0000 0.38730  0.11270  0.38730  Biso   1.000  C
  C27      1.0000 0.05390  0.44610  0.05390  Biso   1.000  C
  C28      1.0000 0.41290  0.02510  0.02510  Biso   1.000  C
  C29      1.0000 0.97490  0.97490  0.46310  Biso   1.000  C
  C30      1.0000 0.88730  0.61270  0.61270  Biso   1.000  C
  C31      1.0000 0.53690  0.02510  0.41290  Biso   1.000  C
  C32      1.0000 0.97490  0.97490  0.58710  Biso   1.000  C
  C33      1.0000 0.44610  0.05390  0.44610  Biso   1.000  C
  C34      1.0000 0.02510  0.53690  0.02510  Biso   1.000  C
  C35      1.0000 0.02510  0.02510  0.41290  Biso   1.000  C
  C36      1.0000 0.11270  0.38730  0.38730  Biso   1.000  C
  C37      1.0000 0.02510  0.02510  0.53690  Biso   1.000  C
  C38      1.0000 0.97490  0.46310  0.58710  Biso   1.000  C
  C39      1.0000 0.97490  0.58710  0.46310  Biso   1.000  C
  C40      1.0000 0.55390  0.94610  0.94610  Biso   1.000  C
  C41      1.0000 0.97490  0.58710  0.97490  Biso   1.000  C
  C42      1.0000 0.44610  0.05390  0.05390  Biso   1.000  C
  C43      1.0000 0.05390  0.44610  0.44610  Biso   1.000  C
  C44      1.0000 0.11270  0.11270  0.38730  Biso   1.000  C
  C45      1.0000 0.05390  0.05390  0.44610  Biso   1.000  C
  C46      1.0000 0.55390  0.94610  0.55390  Biso   1.000  C
  C47      1.0000 0.58710  0.97490  0.46310  Biso   1.000  C
  C48      1.0000 0.44610  0.44610  0.05390  Biso   1.000  C
  O1       1.0000 0.13360  0.42978  0.13360  Biso   1.000  O
  O2       1.0000 0.13360  0.42978  0.30302  Biso   1.000  O
  O3       1.0000 0.86640  0.57022  0.86640  Biso   1.000  O
  O4       1.0000 0.30302  0.13360  0.42978  Biso   1.000  O
  O5       1.0000 0.13360  0.13360  0.42978  Biso   1.000  O
  O6       1.0000 0.86640  0.57022  0.69698  Biso   1.000  O
  O7       1.0000 0.69698  0.86640  0.57022  Biso   1.000  O
  O8       1.0000 0.86640  0.86640  0.57022  Biso   1.000  O
  O9       1.0000 0.13360  0.30302  0.13360  Biso   1.000  O
  O10      1.0000 0.42978  0.30302  0.13360  Biso   1.000  O
  O11      1.0000 0.86640  0.69698  0.86640  Biso   1.000  O
  O12      1.0000 0.13360  0.13360  0.30302  Biso   1.000  O
  O13      1.0000 0.69698  0.86640  0.86640  Biso   1.000  O
  O14      1.0000 0.57022  0.69698  0.86640  Biso   1.000  O
  O15      1.0000 0.57022  0.86640  0.86640  Biso   1.000  O
  O16      1.0000 0.13360  0.30302  0.42978  Biso   1.000  O
  O17      1.0000 0.25000  0.25000  0.25000  Biso   1.000  O
  O18      1.0000 0.30302  0.42978  0.13360  Biso   1.000  O
  O19      1.0000 0.69698  0.57022  0.86640  Biso   1.000  O
  O20      1.0000 0.57022  0.86640  0.69698  Biso   1.000  O
  O21      1.0000 0.42978  0.13360  0.13360  Biso   1.000  O
  O22      1.0000 0.86640  0.86640  0.69698  Biso   1.000  O
  O23      1.0000 0.75000  0.75000  0.75000  Biso   1.000  O
  O24      1.0000 0.30302  0.13360  0.13360  Biso   1.000  O
  O25      1.0000 0.86640  0.69698  0.57022  Biso   1.000  O
  O26      1.0000 0.42978  0.13360  0.30302  Biso   1.000  O
  H1       1.0000 0.33611  0.56917  0.04736  Biso   1.000  H
  H2       1.0000 0.95490  0.42685  0.95490  Biso   1.000  H
  H3       1.0000 0.56917  0.04736  0.04736  Biso   1.000  H
  H4       1.0000 0.33611  0.04736  0.56917  Biso   1.000  H
  H5       1.0000 0.43083  0.66389  0.95264  Biso   1.000  H
  H6       1.0000 0.66335  0.42685  0.95490  Biso   1.000  H
  H7       1.0000 0.04736  0.56917  0.33611  Biso   1.000  H
  H8       1.0000 0.04736  0.33611  0.04736  Biso   1.000  H
  H9       1.0000 0.56917  0.33611  0.04736  Biso   1.000  H
  H10      1.0000 0.66389  0.95264  0.95264  Biso   1.000  H
  H11      1.0000 0.43083  0.95264  0.95264  Biso   1.000  H
  H12      1.0000 0.04736  0.33611  0.56917  Biso   1.000  H
  H13      1.0000 0.43083  0.95264  0.66389  Biso   1.000  H
  H14      1.0000 0.33611  0.04736  0.04736  Biso   1.000  H
  H15      1.0000 0.95490  0.95490  0.42685  Biso   1.000  H
  H16      1.0000 0.57315  0.04510  0.33665  Biso   1.000  H
  H17      1.0000 0.95490  0.95490  0.66335  Biso   1.000  H
  H18      1.0000 0.04510  0.57315  0.04510  Biso   1.000  H
  H19      1.0000 0.04736  0.04736  0.33611  Biso   1.000  H
  H20      1.0000 0.04736  0.04736  0.56917  Biso   1.000  H
  H21      1.0000 0.95490  0.42685  0.66335  Biso   1.000  H
  H22      1.0000 0.95264  0.66389  0.43083  Biso   1.000  H
  H23      1.0000 0.95490  0.66335  0.95490  Biso   1.000  H
  H24      1.0000 0.66389  0.95264  0.43083  Biso   1.000  H
  Zn9      1.0000 0.90438  0.75516  0.43921  Biso   1.000  Zn
  Zn10     1.0000 0.08121  0.75516  0.26238  Biso   1.000  Zn
  Zn11     1.0000 0.90438  0.75516  0.26238  Biso   1.000  Zn
  Zn12     1.0000 0.90438  0.93199  0.26238  Biso   1.000  Zn
  Zn13     1.0000 0.51536  0.33605  0.66644  Biso   1.000  Zn
  Zn14     1.0000 0.33853  0.33605  0.84327  Biso   1.000  Zn
  Zn15     1.0000 0.51536  0.15922  0.84327  Biso   1.000  Zn
  Zn16     1.0000 0.51536  0.33605  0.84327  Biso   1.000  Zn
  H25      1.0000 0.06321  0.59017  0.61036  Biso   1.000  H
  H26      1.0000 0.26741  0.59017  0.40616  Biso   1.000  H
  H27      1.0000 0.75443  0.89894  0.09738  Biso   1.000  H
  H28      1.0000 0.75443  0.10315  0.09738  Biso   1.000  H
  H29      1.0000 0.75443  0.10315  0.40616  Biso   1.000  H
  H30      1.0000 0.75443  0.89894  0.61036  Biso   1.000  H
  H31      1.0000 0.06321  0.59017  0.09738  Biso   1.000  H
  H32      1.0000 0.26741  0.59017  0.09738  Biso   1.000  H
  H33      1.0000 0.26741  0.89894  0.09738  Biso   1.000  H
  H34      1.0000 0.06321  0.10315  0.09738  Biso   1.000  H
  H35      1.0000 0.75443  0.59017  0.40616  Biso   1.000  H
  H36      1.0000 0.75443  0.59017  0.61036  Biso   1.000  H
  H37      1.0000 0.35653  0.50105  0.49528  Biso   1.000  H
  H38      1.0000 0.15233  0.50105  0.69949  Biso   1.000  H
  H39      1.0000 0.66531  0.98806  0.00826  Biso   1.000  H
  H40      1.0000 0.66531  0.19227  0.00826  Biso   1.000  H
  H41      1.0000 0.66531  0.50105  0.69949  Biso   1.000  H
  H42      1.0000 0.66531  0.50105  0.49528  Biso   1.000  H
  H43      1.0000 0.35653  0.98806  0.00826  Biso   1.000  H
  H44      1.0000 0.15233  0.19227  0.00826  Biso   1.000  H
  H45      1.0000 0.15233  0.50105  0.00826  Biso   1.000  H
  H46      1.0000 0.35653  0.50105  0.00826  Biso   1.000  H
  H47      1.0000 0.66531  0.98806  0.69949  Biso   1.000  H
  H48      1.0000 0.66531  0.19227  0.49528  Biso   1.000  H
  C49      1.0000 0.12627  0.57231  0.58301  Biso   1.000  C
  C50      1.0000 0.24006  0.57231  0.46922  Biso   1.000  C
  C51      1.0000 0.73658  0.96201  0.07953  Biso   1.000  C
  C52      1.0000 0.73658  0.07579  0.07953  Biso   1.000  C
  C53      1.0000 0.73658  0.07579  0.46922  Biso   1.000  C
  C54      1.0000 0.73658  0.96201  0.58301  Biso   1.000  C
  C55      1.0000 0.12627  0.57231  0.07953  Biso   1.000  C
  C56      1.0000 0.24006  0.57231  0.07953  Biso   1.000  C
  C57      1.0000 0.24006  0.96201  0.07953  Biso   1.000  C
  C58      1.0000 0.12627  0.07579  0.07953  Biso   1.000  C
  C59      1.0000 0.73658  0.57231  0.46922  Biso   1.000  C
  C60      1.0000 0.73658  0.57231  0.58301  Biso   1.000  C
  C61      1.0000 0.29347  0.51890  0.52264  Biso   1.000  C
  C62      1.0000 0.17969  0.51890  0.63642  Biso   1.000  C
  C63      1.0000 0.68317  0.01542  0.02612  Biso   1.000  C
  C64      1.0000 0.68317  0.12920  0.02612  Biso   1.000  C
  C65      1.0000 0.68317  0.51890  0.63642  Biso   1.000  C
  C66      1.0000 0.68317  0.51890  0.52264  Biso   1.000  C
  C67      1.0000 0.29347  0.01542  0.02612  Biso   1.000  C
  C68      1.0000 0.17969  0.12920  0.02612  Biso   1.000  C
  C69      1.0000 0.17969  0.51890  0.02612  Biso   1.000  C
  C70      1.0000 0.29347  0.51890  0.02612  Biso   1.000  C
  C71      1.0000 0.68317  0.01542  0.63642  Biso   1.000  C
  C72      1.0000 0.68317  0.12920  0.52264  Biso   1.000  C
  C73      1.0000 0.08937  0.65858  0.44737  Biso   1.000  C
  C74      1.0000 0.14764  0.60032  0.50563  Biso   1.000  C
  C75      1.0000 0.80780  0.94015  0.16580  Biso   1.000  C
  C76      1.0000 0.74954  0.99842  0.10753  Biso   1.000  C
  C77      1.0000 0.80780  0.94015  0.44737  Biso   1.000  C
  C78      1.0000 0.74954  0.99842  0.50563  Biso   1.000  C
  C79      1.0000 0.08937  0.65858  0.16580  Biso   1.000  C
  C80      1.0000 0.14764  0.60032  0.10753  Biso   1.000  C
  C81      1.0000 0.08937  0.94015  0.16580  Biso   1.000  C
  C82      1.0000 0.14764  0.99842  0.10753  Biso   1.000  C
  C83      1.0000 0.80780  0.65858  0.44737  Biso   1.000  C
  C84      1.0000 0.74954  0.60032  0.50563  Biso   1.000  C
  C85      1.0000 0.33037  0.43263  0.65827  Biso   1.000  C
  C86      1.0000 0.27211  0.49090  0.60001  Biso   1.000  C
  C87      1.0000 0.61194  0.15106  0.93985  Biso   1.000  C
  C88      1.0000 0.67021  0.09279  0.99811  Biso   1.000  C
  C89      1.0000 0.61194  0.43263  0.65827  Biso   1.000  C
  C90      1.0000 0.67021  0.49090  0.60001  Biso   1.000  C
  C91      1.0000 0.33037  0.15106  0.93985  Biso   1.000  C
  C92      1.0000 0.27211  0.09279  0.99811  Biso   1.000  C
  C93      1.0000 0.33037  0.43263  0.93985  Biso   1.000  C
  C94      1.0000 0.27211  0.49090  0.99811  Biso   1.000  C
  C95      1.0000 0.61194  0.15106  0.65827  Biso   1.000  C
  C96      1.0000 0.67021  0.09279  0.60001  Biso   1.000  C
  O27      1.0000 0.94859  0.79937  0.30658  Biso   1.000  O
  O28      1.0000 0.47116  0.29184  0.79906  Biso   1.000  O
  O29      1.0000 0.00483  0.68153  0.48601  Biso   1.000  O
  O30      1.0000 0.12802  0.68153  0.36283  Biso   1.000  O
  O31      1.0000 0.83075  0.85561  0.18875  Biso   1.000  O
  O32      1.0000 0.83075  0.97880  0.18875  Biso   1.000  O
  O33      1.0000 0.83075  0.97880  0.36283  Biso   1.000  O
  O34      1.0000 0.83075  0.85561  0.48601  Biso   1.000  O
  O35      1.0000 0.00483  0.68153  0.18875  Biso   1.000  O
  O36      1.0000 0.12802  0.68153  0.18875  Biso   1.000  O
  O37      1.0000 0.12802  0.85561  0.18875  Biso   1.000  O
  O38      1.0000 0.00483  0.97880  0.18875  Biso   1.000  O
  O39      1.0000 0.83075  0.68153  0.36283  Biso   1.000  O
  O40      1.0000 0.83075  0.68153  0.48601  Biso   1.000  O
  O41      1.0000 0.41491  0.40968  0.61963  Biso   1.000  O
  O42      1.0000 0.29173  0.40968  0.74282  Biso   1.000  O
  O43      1.0000 0.58899  0.11242  0.91690  Biso   1.000  O
  O44      1.0000 0.58899  0.23560  0.91690  Biso   1.000  O
  O45      1.0000 0.58899  0.40968  0.74282  Biso   1.000  O
  O46      1.0000 0.58899  0.40968  0.61963  Biso   1.000  O
  O47      1.0000 0.41491  0.11242  0.91690  Biso   1.000  O
  O48      1.0000 0.29173  0.23560  0.91690  Biso   1.000  O
  O49      1.0000 0.29173  0.40968  0.91690  Biso   1.000  O
  O50      1.0000 0.41491  0.40968  0.91690  Biso   1.000  O
  O51      1.0000 0.58899  0.11242  0.74282  Biso   1.000  O
  O52      1.0000 0.58899  0.23560  0.61963  Biso   1.000  O
