data_image0
_cell_length_a       18.1065
_cell_length_b       18.1065
_cell_length_c       18.1065
_cell_angle_alpha    60
_cell_angle_beta     60
_cell_angle_gamma    60

_symmetry_space_group_name_H-M    "P 1"
_symmetry_int_tables_number       1

loop_
  _symmetry_equiv_pos_as_xyz
  'x, y, z'

loop_
  _atom_site_label
  _atom_site_occupancy
  _atom_site_fract_x
  _atom_site_fract_y
  _atom_site_fract_z
  _atom_site_thermal_displace_type
  _atom_site_B_iso_or_equiv
  _atom_site_type_symbol
  C1       1.0000 0.79354  0.61938  0.79354  Biso   1.000  C
  C2       1.0000 0.61938  0.79354  0.79354  Biso   1.000  C
  C3       1.0000 0.20646  0.20646  0.38062  Biso   1.000  C
  C4       1.0000 0.79354  0.79354  0.79354  Biso   1.000  C
  C5       1.0000 0.20646  0.38062  0.20646  Biso   1.000  C
  C6       1.0000 0.20646  0.20646  0.20646  Biso   1.000  C
  C7       1.0000 0.38062  0.20646  0.20646  Biso   1.000  C
  C8       1.0000 0.79354  0.79354  0.61938  Biso   1.000  C
  C9       1.0000 0.41290  0.53690  0.02510  Biso   1.000  C
  C10      1.0000 0.97490  0.46310  0.97490  Biso   1.000  C
  C11      1.0000 0.53690  0.02510  0.02510  Biso   1.000  C
  C12      1.0000 0.94610  0.55390  0.55390  Biso   1.000  C
  C13      1.0000 0.41290  0.02510  0.53690  Biso   1.000  C
  C14      1.0000 0.55390  0.55390  0.94610  Biso   1.000  C
  C15      1.0000 0.38730  0.38730  0.11270  Biso   1.000  C
  C16      1.0000 0.46310  0.58710  0.97490  Biso   1.000  C
  C17      1.0000 0.58710  0.46310  0.97490  Biso   1.000  C
  C18      1.0000 0.94610  0.94610  0.55390  Biso   1.000  C
  C19      1.0000 0.94610  0.55390  0.94610  Biso   1.000  C
  C20      1.0000 0.02510  0.53690  0.41290  Biso   1.000  C
  C21      1.0000 0.02510  0.41290  0.02510  Biso   1.000  C
  C22      1.0000 0.88730  0.61270  0.88730  Biso   1.000  C
  C23      1.0000 0.61270  0.88730  0.61270  Biso   1.000  C
  C24      1.0000 0.38730  0.11270  0.11270  Biso   1.000  C
  C25      1.0000 0.61270  0.88730  0.88730  Biso   1.000  C
  C26      1.0000 0.61270  0.61270  0.88730  Biso   1.000  C
  C27      1.0000 0.53690  0.41290  0.02510  Biso   1.000  C
  C28      1.0000 0.58710  0.97490  0.97490  Biso   1.000  C
  C29      1.0000 0.11270  0.38730  0.11270  Biso   1.000  C
  C30      1.0000 0.46310  0.97490  0.97490  Biso   1.000  C
  C31      1.0000 0.02510  0.41290  0.53690  Biso   1.000  C
  C32      1.0000 0.88730  0.88730  0.61270  Biso   1.000  C
  C33      1.0000 0.46310  0.97490  0.58710  Biso   1.000  C
  C34      1.0000 0.38730  0.11270  0.38730  Biso   1.000  C
  C35      1.0000 0.05390  0.44610  0.05390  Biso   1.000  C
  C36      1.0000 0.41290  0.02510  0.02510  Biso   1.000  C
  C37      1.0000 0.97490  0.97490  0.46310  Biso   1.000  C
  C38      1.0000 0.88730  0.61270  0.61270  Biso   1.000  C
  C39      1.0000 0.53690  0.02510  0.41290  Biso   1.000  C
  C40      1.0000 0.97490  0.97490  0.58710  Biso   1.000  C
  C41      1.0000 0.44610  0.05390  0.44610  Biso   1.000  C
  C42      1.0000 0.02510  0.53690  0.02510  Biso   1.000  C
  C43      1.0000 0.02510  0.02510  0.41290  Biso   1.000  C
  C44      1.0000 0.11270  0.38730  0.38730  Biso   1.000  C
  C45      1.0000 0.02510  0.02510  0.53690  Biso   1.000  C
  C46      1.0000 0.97490  0.46310  0.58710  Biso   1.000  C
  C47      1.0000 0.97490  0.58710  0.46310  Biso   1.000  C
  C48      1.0000 0.55390  0.94610  0.94610  Biso   1.000  C
  C49      1.0000 0.97490  0.58710  0.97490  Biso   1.000  C
  C50      1.0000 0.44610  0.05390  0.05390  Biso   1.000  C
  C51      1.0000 0.05390  0.44610  0.44610  Biso   1.000  C
  C52      1.0000 0.11270  0.11270  0.38730  Biso   1.000  C
  C53      1.0000 0.05390  0.05390  0.44610  Biso   1.000  C
  C54      1.0000 0.55390  0.94610  0.55390  Biso   1.000  C
  C55      1.0000 0.58710  0.97490  0.46310  Biso   1.000  C
  C56      1.0000 0.44610  0.44610  0.05390  Biso   1.000  C
  C57      1.0000 0.13360  0.42978  0.13360  Biso   1.000  C
  C58      1.0000 0.13360  0.42978  0.30302  Biso   1.000  C
  C59      1.0000 0.86640  0.57022  0.86640  Biso   1.000  C
  C60      1.0000 0.30302  0.13360  0.42978  Biso   1.000  C
  C61      1.0000 0.13360  0.13360  0.42978  Biso   1.000  C
  C62      1.0000 0.86640  0.57022  0.69698  Biso   1.000  C
  C63      1.0000 0.69698  0.86640  0.57022  Biso   1.000  C
  C64      1.0000 0.86640  0.86640  0.57022  Biso   1.000  C
  C65      1.0000 0.13360  0.30302  0.13360  Biso   1.000  C
  C66      1.0000 0.42978  0.30302  0.13360  Biso   1.000  C
  C67      1.0000 0.86640  0.69698  0.86640  Biso   1.000  C
  C68      1.0000 0.13360  0.13360  0.30302  Biso   1.000  C
  C69      1.0000 0.69698  0.86640  0.86640  Biso   1.000  C
  C70      1.0000 0.57022  0.69698  0.86640  Biso   1.000  C
  C71      1.0000 0.57022  0.86640  0.86640  Biso   1.000  C
  C72      1.0000 0.13360  0.30302  0.42978  Biso   1.000  C
  C73      1.0000 0.25000  0.25000  0.25000  Biso   1.000  C
  C74      1.0000 0.30302  0.42978  0.13360  Biso   1.000  C
  C75      1.0000 0.69698  0.57022  0.86640  Biso   1.000  C
  C76      1.0000 0.57022  0.86640  0.69698  Biso   1.000  C
  C77      1.0000 0.42978  0.13360  0.13360  Biso   1.000  C
  C78      1.0000 0.86640  0.86640  0.69698  Biso   1.000  C
  C79      1.0000 0.75000  0.75000  0.75000  Biso   1.000  C
  C80      1.0000 0.30302  0.13360  0.13360  Biso   1.000  C
  C81      1.0000 0.86640  0.69698  0.57022  Biso   1.000  C
  C82      1.0000 0.42978  0.13360  0.30302  Biso   1.000  C
  C83      1.0000 0.33611  0.56917  0.04736  Biso   1.000  C
  C84      1.0000 0.95490  0.42685  0.95490  Biso   1.000  C
  C85      1.0000 0.56917  0.04736  0.04736  Biso   1.000  C
  C86      1.0000 0.33611  0.04736  0.56917  Biso   1.000  C
  C87      1.0000 0.43083  0.66389  0.95264  Biso   1.000  C
  C88      1.0000 0.66335  0.42685  0.95490  Biso   1.000  C
  C89      1.0000 0.04736  0.56917  0.33611  Biso   1.000  C
  C90      1.0000 0.04736  0.33611  0.04736  Biso   1.000  C
  C91      1.0000 0.56917  0.33611  0.04736  Biso   1.000  C
  C92      1.0000 0.66389  0.95264  0.95264  Biso   1.000  C
  C93      1.0000 0.43083  0.95264  0.95264  Biso   1.000  C
  C94      1.0000 0.04736  0.33611  0.56917  Biso   1.000  C
  C95      1.0000 0.43083  0.95264  0.66389  Biso   1.000  C
  C96      1.0000 0.33611  0.04736  0.04736  Biso   1.000  C
  C97      1.0000 0.95490  0.95490  0.42685  Biso   1.000  C
  C98      1.0000 0.57315  0.04510  0.33665  Biso   1.000  C
  C99      1.0000 0.95490  0.95490  0.66335  Biso   1.000  C
  C100     1.0000 0.04510  0.57315  0.04510  Biso   1.000  C
  C101     1.0000 0.04736  0.04736  0.33611  Biso   1.000  C
  C102     1.0000 0.04736  0.04736  0.56917  Biso   1.000  C
  C103     1.0000 0.95490  0.42685  0.66335  Biso   1.000  C
  C104     1.0000 0.95264  0.66389  0.43083  Biso   1.000  C
  C105     1.0000 0.95490  0.66335  0.95490  Biso   1.000  C
  C106     1.0000 0.66389  0.95264  0.43083  Biso   1.000  C
  O1       1.0000 0.90689  0.75377  0.43920  Biso   1.000  O
  O2       1.0000 0.08412  0.75377  0.26197  Biso   1.000  O
  O3       1.0000 0.90689  0.75377  0.26197  Biso   1.000  O
  O4       1.0000 0.90689  0.93099  0.26197  Biso   1.000  O
  O5       1.0000 0.52357  0.33302  0.66400  Biso   1.000  O
  O6       1.0000 0.34634  0.33302  0.84123  Biso   1.000  O
  O7       1.0000 0.52357  0.15579  0.84123  Biso   1.000  O
  O8       1.0000 0.52357  0.33302  0.84123  Biso   1.000  O
  O9       1.0000 0.06801  0.58893  0.60775  Biso   1.000  O
  O10      1.0000 0.27138  0.58893  0.40438  Biso   1.000  O
  O11      1.0000 0.76077  0.89617  0.09714  Biso   1.000  O
  O12      1.0000 0.76077  0.09954  0.09714  Biso   1.000  O
  O13      1.0000 0.76077  0.09954  0.40438  Biso   1.000  O
  O14      1.0000 0.76077  0.89617  0.60775  Biso   1.000  O
  O15      1.0000 0.06801  0.58893  0.09714  Biso   1.000  O
  O16      1.0000 0.27138  0.58893  0.09714  Biso   1.000  O
  O17      1.0000 0.27138  0.89617  0.09714  Biso   1.000  O
  O18      1.0000 0.06801  0.09954  0.09714  Biso   1.000  O
  O19      1.0000 0.76077  0.58893  0.40438  Biso   1.000  O
  O20      1.0000 0.76077  0.58893  0.60775  Biso   1.000  O
  O21      1.0000 0.36245  0.49786  0.49545  Biso   1.000  O
  O22      1.0000 0.15908  0.49786  0.69882  Biso   1.000  O
  O23      1.0000 0.66969  0.98724  0.00606  Biso   1.000  O
  O24      1.0000 0.66969  0.19061  0.00606  Biso   1.000  O
  O25      1.0000 0.66969  0.49786  0.69882  Biso   1.000  O
  O26      1.0000 0.66969  0.49786  0.49545  Biso   1.000  O
  O27      1.0000 0.36245  0.98724  0.00606  Biso   1.000  O
  O28      1.0000 0.15908  0.19061  0.00606  Biso   1.000  O
  O29      1.0000 0.15908  0.49786  0.00606  Biso   1.000  O
  O30      1.0000 0.36245  0.49786  0.00606  Biso   1.000  O
  O31      1.0000 0.66969  0.98724  0.69882  Biso   1.000  O
  O32      1.0000 0.66969  0.19061  0.49545  Biso   1.000  O
  O33      1.0000 0.13181  0.57058  0.58064  Biso   1.000  O
  O34      1.0000 0.24427  0.57058  0.46818  Biso   1.000  O
  O35      1.0000 0.74242  0.95997  0.07879  Biso   1.000  O
  O36      1.0000 0.74242  0.07243  0.07879  Biso   1.000  O
  O37      1.0000 0.74242  0.07243  0.46818  Biso   1.000  O
  O38      1.0000 0.74242  0.95997  0.58064  Biso   1.000  O
  O39      1.0000 0.13181  0.57058  0.07879  Biso   1.000  O
  O40      1.0000 0.24427  0.57058  0.07879  Biso   1.000  O
  O41      1.0000 0.24427  0.95997  0.07879  Biso   1.000  O
  O42      1.0000 0.13181  0.07243  0.07879  Biso   1.000  O
  O43      1.0000 0.74242  0.57058  0.46818  Biso   1.000  O
  O44      1.0000 0.74242  0.57058  0.58064  Biso   1.000  O
  O45      1.0000 0.29865  0.51620  0.52256  Biso   1.000  O
  O46      1.0000 0.18619  0.51620  0.63502  Biso   1.000  O
  O47      1.0000 0.68804  0.01435  0.02441  Biso   1.000  O
  O48      1.0000 0.68804  0.12681  0.02441  Biso   1.000  O
  O49      1.0000 0.68804  0.51620  0.63502  Biso   1.000  O
  O50      1.0000 0.68804  0.51620  0.52256  Biso   1.000  O
  O51      1.0000 0.29865  0.01435  0.02441  Biso   1.000  O
  O52      1.0000 0.18619  0.12681  0.02441  Biso   1.000  O
  O53      1.0000 0.18619  0.51620  0.02441  Biso   1.000  O
  O54      1.0000 0.29865  0.51620  0.02441  Biso   1.000  O
  O55      1.0000 0.68804  0.01435  0.63502  Biso   1.000  O
  O56      1.0000 0.68804  0.12681  0.52256  Biso   1.000  O
  O57      1.0000 0.09232  0.65695  0.44740  Biso   1.000  O
  O58      1.0000 0.15112  0.59815  0.50620  Biso   1.000  O
  O59      1.0000 0.81007  0.93919  0.16515  Biso   1.000  O
  O60      1.0000 0.75127  0.99799  0.10635  Biso   1.000  O
  O61      1.0000 0.81007  0.93919  0.44740  Biso   1.000  O
  O62      1.0000 0.75127  0.99799  0.50620  Biso   1.000  O
  O63      1.0000 0.09232  0.65695  0.16515  Biso   1.000  O
  O64      1.0000 0.15112  0.59815  0.10635  Biso   1.000  O
  O65      1.0000 0.09232  0.93919  0.16515  Biso   1.000  O
  O66      1.0000 0.15112  0.99799  0.10635  Biso   1.000  O
  O67      1.0000 0.81007  0.65695  0.44740  Biso   1.000  O
  O68      1.0000 0.75127  0.59815  0.50620  Biso   1.000  O
  O69      1.0000 0.33814  0.42984  0.65580  Biso   1.000  O
  O70      1.0000 0.27934  0.48864  0.59700  Biso   1.000  O
  O71      1.0000 0.62038  0.14759  0.93804  Biso   1.000  O
  O72      1.0000 0.67918  0.08879  0.99684  Biso   1.000  O
  O73      1.0000 0.62038  0.42984  0.65580  Biso   1.000  O
  O74      1.0000 0.67918  0.48864  0.59700  Biso   1.000  O
  O75      1.0000 0.33814  0.14759  0.93804  Biso   1.000  O
  O76      1.0000 0.27934  0.08879  0.99684  Biso   1.000  O
  O77      1.0000 0.33814  0.42984  0.93804  Biso   1.000  O
  O78      1.0000 0.27934  0.48864  0.99684  Biso   1.000  O
  O79      1.0000 0.62038  0.14759  0.65580  Biso   1.000  O
  O80      1.0000 0.67918  0.08879  0.59700  Biso   1.000  O
  O81      1.0000 0.95120  0.79807  0.30628  Biso   1.000  O
  O82      1.0000 0.47926  0.28872  0.79692  Biso   1.000  O
  O83      1.0000 0.00740  0.67981  0.48660  Biso   1.000  O
  O84      1.0000 0.13152  0.67981  0.36248  Biso   1.000  O
  O85      1.0000 0.83293  0.85427  0.18801  Biso   1.000  O
  O86      1.0000 0.83293  0.97839  0.18801  Biso   1.000  O
  O87      1.0000 0.83293  0.97839  0.36248  Biso   1.000  O
  O88      1.0000 0.83293  0.85427  0.48660  Biso   1.000  O
  O89      1.0000 0.00740  0.67981  0.18801  Biso   1.000  O
  O90      1.0000 0.13152  0.67981  0.18801  Biso   1.000  O
  O91      1.0000 0.13152  0.85427  0.18801  Biso   1.000  O
  O92      1.0000 0.00740  0.97839  0.18801  Biso   1.000  O
  O93      1.0000 0.83293  0.67981  0.36248  Biso   1.000  O
  O94      1.0000 0.83293  0.67981  0.48660  Biso   1.000  O
  O95      1.0000 0.42306  0.40698  0.61660  Biso   1.000  O
  O96      1.0000 0.29894  0.40698  0.74072  Biso   1.000  O
  O97      1.0000 0.59752  0.10839  0.91518  Biso   1.000  O
  O98      1.0000 0.59752  0.23251  0.91518  Biso   1.000  O
  O99      1.0000 0.59752  0.40698  0.74072  Biso   1.000  O
  O100     1.0000 0.59752  0.40698  0.61660  Biso   1.000  O
  O101     1.0000 0.42306  0.10839  0.91518  Biso   1.000  O
  O102     1.0000 0.29894  0.23251  0.91518  Biso   1.000  O
  O103     1.0000 0.29894  0.40698  0.91518  Biso   1.000  O
  O104     1.0000 0.42306  0.40698  0.91518  Biso   1.000  O
  O105     1.0000 0.59752  0.10839  0.74072  Biso   1.000  O
  O106     1.0000 0.59752  0.23251  0.61660  Biso   1.000  O
