data_image0
_cell_length_a       17.5757
_cell_length_b       17.5757
_cell_length_c       17.5757
_cell_angle_alpha    90.9296
_cell_angle_beta     90.9296
_cell_angle_gamma    90.9296

_symmetry_space_group_name_H-M    "P 1"
_symmetry_int_tables_number       1

loop_
  _symmetry_equiv_pos_as_xyz
  'x, y, z'

loop_
  _atom_site_label
  _atom_site_occupancy
  _atom_site_fract_x
  _atom_site_fract_y
  _atom_site_fract_z
  _atom_site_thermal_displace_type
  _atom_site_B_iso_or_equiv
  _atom_site_type_symbol
  C1       1.0000 0.36705  0.36705  0.36705  Biso   1.000  C
  C2       1.0000 0.63295  0.63295  0.63295  Biso   1.000  C
  C3       1.0000 0.50000  0.50000  0.50000  Biso   1.000  C
  C4       1.0000 0.38200  0.53620  0.23280  Biso   1.000  C
  C5       1.0000 0.38110  0.57350  0.10670  Biso   1.000  C
  C6       1.0000 0.61070  0.54110  0.23710  Biso   1.000  C
  C7       1.0000 0.40260  0.61430  0.96730  Biso   1.000  C
  C8       1.0000 0.66330  0.62560  0.91640  Biso   1.000  C
  C9       1.0000 0.44560  0.63680  0.84750  Biso   1.000  C
  C10      1.0000 0.23280  0.38200  0.53620  Biso   1.000  C
  C11      1.0000 0.10670  0.38110  0.57350  Biso   1.000  C
  C12      1.0000 0.23710  0.61070  0.54110  Biso   1.000  C
  C13      1.0000 0.96730  0.40260  0.61430  Biso   1.000  C
  C14      1.0000 0.91640  0.66330  0.62560  Biso   1.000  C
  C15      1.0000 0.84750  0.44560  0.63680  Biso   1.000  C
  C16      1.0000 0.53620  0.23280  0.38200  Biso   1.000  C
  C17      1.0000 0.57350  0.10670  0.38110  Biso   1.000  C
  C18      1.0000 0.54110  0.23710  0.61070  Biso   1.000  C
  C19      1.0000 0.61430  0.96730  0.40260  Biso   1.000  C
  C20      1.0000 0.62560  0.91640  0.66330  Biso   1.000  C
  C21      1.0000 0.63680  0.84750  0.44560  Biso   1.000  C
  C22      1.0000 0.61800  0.46380  0.76720  Biso   1.000  C
  C23      1.0000 0.61890  0.42650  0.89330  Biso   1.000  C
  C24      1.0000 0.38930  0.45890  0.76290  Biso   1.000  C
  C25      1.0000 0.59740  0.38570  0.03270  Biso   1.000  C
  C26      1.0000 0.33670  0.37440  0.08360  Biso   1.000  C
  C27      1.0000 0.55440  0.36320  0.15250  Biso   1.000  C
  C28      1.0000 0.76720  0.61800  0.46380  Biso   1.000  C
  C29      1.0000 0.89330  0.61890  0.42650  Biso   1.000  C
  C30      1.0000 0.76290  0.38930  0.45890  Biso   1.000  C
  C31      1.0000 0.03270  0.59740  0.38570  Biso   1.000  C
  C32      1.0000 0.08360  0.33670  0.37440  Biso   1.000  C
  C33      1.0000 0.15250  0.55440  0.36320  Biso   1.000  C
  C34      1.0000 0.46380  0.76720  0.61800  Biso   1.000  C
  C35      1.0000 0.42650  0.89330  0.61890  Biso   1.000  C
  C36      1.0000 0.45890  0.76290  0.38930  Biso   1.000  C
  C37      1.0000 0.38570  0.03270  0.59740  Biso   1.000  C
  C38      1.0000 0.37440  0.08360  0.33670  Biso   1.000  C
  C39      1.0000 0.36320  0.15250  0.55440  Biso   1.000  C
  C40      1.0000 0.49760  0.51140  0.32830  Biso   1.000  C
  C41      1.0000 0.49530  0.53440  0.24790  Biso   1.000  C
  C42      1.0000 0.42790  0.54470  0.20840  Biso   1.000  C
  C43      1.0000 0.42700  0.56710  0.13290  Biso   1.000  C
  C44      1.0000 0.56480  0.54840  0.21150  Biso   1.000  C
  C45      1.0000 0.56410  0.57310  0.13740  Biso   1.000  C
  C46      1.0000 0.49620  0.58030  0.09700  Biso   1.000  C
  C47      1.0000 0.50940  0.60160  0.01630  Biso   1.000  C
  C48      1.0000 0.58570  0.60740  0.99960  Biso   1.000  C
  C49      1.0000 0.45440  0.61520  0.95750  Biso   1.000  C
  C50      1.0000 0.61150  0.62260  0.92620  Biso   1.000  C
  C51      1.0000 0.48090  0.62940  0.88650  Biso   1.000  C
  C52      1.0000 0.55850  0.63310  0.86910  Biso   1.000  C
  C53      1.0000 0.58310  0.64320  0.78850  Biso   1.000  C
  C54      1.0000 0.32830  0.49760  0.51140  Biso   1.000  C
  C55      1.0000 0.24790  0.49530  0.53440  Biso   1.000  C
  C56      1.0000 0.20840  0.42790  0.54470  Biso   1.000  C
  C57      1.0000 0.13290  0.42700  0.56710  Biso   1.000  C
  C58      1.0000 0.21150  0.56480  0.54840  Biso   1.000  C
  C59      1.0000 0.13740  0.56410  0.57310  Biso   1.000  C
  C60      1.0000 0.09700  0.49620  0.58030  Biso   1.000  C
  C61      1.0000 0.01630  0.50940  0.60160  Biso   1.000  C
  C62      1.0000 0.99960  0.58570  0.60740  Biso   1.000  C
  C63      1.0000 0.95750  0.45440  0.61520  Biso   1.000  C
  C64      1.0000 0.92620  0.61150  0.62260  Biso   1.000  C
  C65      1.0000 0.88650  0.48090  0.62940  Biso   1.000  C
  C66      1.0000 0.86910  0.55850  0.63310  Biso   1.000  C
  C67      1.0000 0.78850  0.58310  0.64320  Biso   1.000  C
  C68      1.0000 0.51140  0.32830  0.49760  Biso   1.000  C
  C69      1.0000 0.53440  0.24790  0.49530  Biso   1.000  C
  C70      1.0000 0.54470  0.20840  0.42790  Biso   1.000  C
  C71      1.0000 0.56710  0.13290  0.42700  Biso   1.000  C
  C72      1.0000 0.54840  0.21150  0.56480  Biso   1.000  C
  C73      1.0000 0.57310  0.13740  0.56410  Biso   1.000  C
  C74      1.0000 0.58030  0.09700  0.49620  Biso   1.000  C
  C75      1.0000 0.60160  0.01630  0.50940  Biso   1.000  C
  C76      1.0000 0.60740  0.99960  0.58570  Biso   1.000  C
  C77      1.0000 0.61520  0.95750  0.45440  Biso   1.000  C
  C78      1.0000 0.62260  0.92620  0.61150  Biso   1.000  C
  C79      1.0000 0.62940  0.88650  0.48090  Biso   1.000  C
  C80      1.0000 0.63310  0.86910  0.55850  Biso   1.000  C
  C81      1.0000 0.64320  0.78850  0.58310  Biso   1.000  C
  C82      1.0000 0.50240  0.48860  0.67170  Biso   1.000  C
  C83      1.0000 0.50470  0.46560  0.75210  Biso   1.000  C
  C84      1.0000 0.57210  0.45530  0.79160  Biso   1.000  C
  C85      1.0000 0.57300  0.43290  0.86710  Biso   1.000  C
  C86      1.0000 0.43520  0.45160  0.78850  Biso   1.000  C
  C87      1.0000 0.43590  0.42690  0.86260  Biso   1.000  C
  C88      1.0000 0.50380  0.41970  0.90300  Biso   1.000  C
  C89      1.0000 0.49060  0.39840  0.98370  Biso   1.000  C
  C90      1.0000 0.41430  0.39260  0.00040  Biso   1.000  C
  C91      1.0000 0.54560  0.38480  0.04250  Biso   1.000  C
  C92      1.0000 0.38850  0.37740  0.07380  Biso   1.000  C
  C93      1.0000 0.51910  0.37060  0.11350  Biso   1.000  C
  C94      1.0000 0.44150  0.36690  0.13090  Biso   1.000  C
  C95      1.0000 0.41690  0.35680  0.21150  Biso   1.000  C
  C96      1.0000 0.67170  0.50240  0.48860  Biso   1.000  C
  C97      1.0000 0.75210  0.50470  0.46560  Biso   1.000  C
  C98      1.0000 0.79160  0.57210  0.45530  Biso   1.000  C
  C99      1.0000 0.86710  0.57300  0.43290  Biso   1.000  C
  C100     1.0000 0.78850  0.43520  0.45160  Biso   1.000  C
  C101     1.0000 0.86260  0.43590  0.42690  Biso   1.000  C
  C102     1.0000 0.90300  0.50380  0.41970  Biso   1.000  C
  C103     1.0000 0.98370  0.49060  0.39840  Biso   1.000  C
  C104     1.0000 0.00040  0.41430  0.39260  Biso   1.000  C
  C105     1.0000 0.04250  0.54560  0.38480  Biso   1.000  C
  C106     1.0000 0.07380  0.38850  0.37740  Biso   1.000  C
  C107     1.0000 0.11350  0.51910  0.37060  Biso   1.000  C
  C108     1.0000 0.13090  0.44150  0.36690  Biso   1.000  C
  C109     1.0000 0.21150  0.41690  0.35680  Biso   1.000  C
  C110     1.0000 0.48860  0.67170  0.50240  Biso   1.000  C
  C111     1.0000 0.46560  0.75210  0.50470  Biso   1.000  C
  C112     1.0000 0.45530  0.79160  0.57210  Biso   1.000  C
  C113     1.0000 0.43290  0.86710  0.57300  Biso   1.000  C
  C114     1.0000 0.45160  0.78850  0.43520  Biso   1.000  C
  C115     1.0000 0.42690  0.86260  0.43590  Biso   1.000  C
  C116     1.0000 0.41970  0.90300  0.50380  Biso   1.000  C
  C117     1.0000 0.39840  0.98370  0.49060  Biso   1.000  C
  C118     1.0000 0.39260  0.00040  0.41430  Biso   1.000  C
  C119     1.0000 0.38480  0.04250  0.54560  Biso   1.000  C
  C120     1.0000 0.37740  0.07380  0.38850  Biso   1.000  C
  C121     1.0000 0.37060  0.11350  0.51910  Biso   1.000  C
  C122     1.0000 0.36690  0.13090  0.44150  Biso   1.000  C
  C123     1.0000 0.35680  0.21150  0.41690  Biso   1.000  C
  C124     1.0000 0.64346  0.59021  0.07990  Biso   1.000  C
  C125     1.0000 0.07990  0.64346  0.59021  Biso   1.000  C
  C126     1.0000 0.59021  0.07990  0.64346  Biso   1.000  C
  C127     1.0000 0.35654  0.40979  0.92010  Biso   1.000  C
  C128     1.0000 0.92010  0.35654  0.40979  Biso   1.000  C
  C129     1.0000 0.40979  0.92010  0.35654  Biso   1.000  C
  C130     1.0000 0.55901  0.51021  0.36411  Biso   1.000  C
  C131     1.0000 0.43443  0.49113  0.35993  Biso   1.000  C
  C132     1.0000 0.65338  0.63758  0.77568  Biso   1.000  C
  C133     1.0000 0.53522  0.65422  0.73692  Biso   1.000  C
  C134     1.0000 0.68380  0.65900  0.10700  Biso   1.000  C
  C135     1.0000 0.68630  0.52110  0.06840  Biso   1.000  C
  C136     1.0000 0.36411  0.55901  0.51021  Biso   1.000  C
  C137     1.0000 0.35993  0.43443  0.49113  Biso   1.000  C
  C138     1.0000 0.77568  0.65338  0.63758  Biso   1.000  C
  C139     1.0000 0.73692  0.53522  0.65422  Biso   1.000  C
  C140     1.0000 0.10700  0.68380  0.65900  Biso   1.000  C
  C141     1.0000 0.06840  0.68630  0.52110  Biso   1.000  C
  C142     1.0000 0.51021  0.36411  0.55901  Biso   1.000  C
  C143     1.0000 0.49113  0.35993  0.43443  Biso   1.000  C
  C144     1.0000 0.63758  0.77568  0.65338  Biso   1.000  C
  C145     1.0000 0.65422  0.73692  0.53522  Biso   1.000  C
  C146     1.0000 0.65900  0.10700  0.68380  Biso   1.000  C
  C147     1.0000 0.52110  0.06840  0.68630  Biso   1.000  C
  C148     1.0000 0.44099  0.48979  0.63589  Biso   1.000  C
  C149     1.0000 0.56557  0.50887  0.64007  Biso   1.000  C
  C150     1.0000 0.34662  0.36242  0.22432  Biso   1.000  C
  C151     1.0000 0.46478  0.34578  0.26308  Biso   1.000  C
  C152     1.0000 0.31620  0.34100  0.89300  Biso   1.000  C
  C153     1.0000 0.31370  0.47890  0.93160  Biso   1.000  C
  C154     1.0000 0.63589  0.44099  0.48979  Biso   1.000  C
  C155     1.0000 0.64007  0.56557  0.50887  Biso   1.000  C
  C156     1.0000 0.22432  0.34662  0.36242  Biso   1.000  C
  C157     1.0000 0.26308  0.46478  0.34578  Biso   1.000  C
  C158     1.0000 0.89300  0.31620  0.34100  Biso   1.000  C
  C159     1.0000 0.93160  0.31370  0.47890  Biso   1.000  C
  C160     1.0000 0.48979  0.63589  0.44099  Biso   1.000  C
  C161     1.0000 0.50887  0.64007  0.56557  Biso   1.000  C
  C162     1.0000 0.36242  0.22432  0.34662  Biso   1.000  C
  C163     1.0000 0.34578  0.26308  0.46478  Biso   1.000  C
  C164     1.0000 0.34100  0.89300  0.31620  Biso   1.000  C
  C165     1.0000 0.47890  0.93160  0.31370  Biso   1.000  C
  O1       1.0000 0.44124  0.43259  0.38573  Biso   1.000  O
  O2       1.0000 0.17534  0.16241  0.12418  Biso   1.000  O
  O3       1.0000 0.30829  0.29750  0.25495  Biso   1.000  O
  O4       1.0000 0.42621  0.56399  0.21434  Biso   1.000  O
  O5       1.0000 0.42706  0.68942  0.17496  Biso   1.000  O
  O6       1.0000 0.19751  0.55961  0.20951  Biso   1.000  O
  O7       1.0000 0.40579  0.82850  0.14834  Biso   1.000  O
  O8       1.0000 0.14507  0.87920  0.13620  Biso   1.000  O
  O9       1.0000 0.36275  0.94788  0.12387  Biso   1.000  O
  O10      1.0000 0.57553  0.26326  0.37357  Biso   1.000  O
  O11      1.0000 0.70164  0.22599  0.37508  Biso   1.000  O
  O12      1.0000 0.57117  0.25459  0.14492  Biso   1.000  O
  O13      1.0000 0.84105  0.18485  0.35425  Biso   1.000  O
  O14      1.0000 0.89188  0.16925  0.09370  Biso   1.000  O
  O15      1.0000 0.96084  0.16165  0.31162  Biso   1.000  O
  O16      1.0000 0.27213  0.41986  0.52024  Biso   1.000  O
  O17      1.0000 0.23486  0.42284  0.64635  Biso   1.000  O
  O18      1.0000 0.26729  0.19118  0.51971  Biso   1.000  O
  O19      1.0000 0.19384  0.38715  0.78598  Biso   1.000  O
  O20      1.0000 0.18262  0.12740  0.84119  Biso   1.000  O
  O21      1.0000 0.17138  0.34614  0.90651  Biso   1.000  O
  O22      1.0000 0.19037  0.03100  0.29556  Biso   1.000  O
  O23      1.0000 0.18952  0.90557  0.33495  Biso   1.000  O
  O24      1.0000 0.41907  0.03538  0.30039  Biso   1.000  O
  O25      1.0000 0.21079  0.76649  0.36156  Biso   1.000  O
  O26      1.0000 0.47151  0.71580  0.37370  Biso   1.000  O
  O27      1.0000 0.25383  0.64711  0.38604  Biso   1.000  O
  O28      1.0000 0.04105  0.33174  0.13634  Biso   1.000  O
  O29      1.0000 0.91494  0.36901  0.13482  Biso   1.000  O
  O30      1.0000 0.04541  0.34041  0.36499  Biso   1.000  O
  O31      1.0000 0.77553  0.41014  0.15565  Biso   1.000  O
  O32      1.0000 0.72470  0.42574  0.41620  Biso   1.000  O
  O33      1.0000 0.65574  0.43334  0.19829  Biso   1.000  O
  O34      1.0000 0.34445  0.17514  0.98966  Biso   1.000  O
  O35      1.0000 0.38172  0.17216  0.86356  Biso   1.000  O
  O36      1.0000 0.34929  0.40382  0.99019  Biso   1.000  O
  O37      1.0000 0.42274  0.20784  0.72392  Biso   1.000  O
  O38      1.0000 0.43396  0.46760  0.66872  Biso   1.000  O
  O39      1.0000 0.44520  0.24885  0.60340  Biso   1.000  O
  O40      1.0000 0.31064  0.46894  0.24072  Biso   1.000  O
  O41      1.0000 0.31291  0.54893  0.21639  Biso   1.000  O
  O42      1.0000 0.38030  0.58824  0.20544  Biso   1.000  O
  O43      1.0000 0.38117  0.66334  0.18179  Biso   1.000  O
  O44      1.0000 0.24340  0.58508  0.20179  Biso   1.000  O
  O45      1.0000 0.24407  0.65874  0.17586  Biso   1.000  O
  O46      1.0000 0.31196  0.69901  0.16799  Biso   1.000  O
  O47      1.0000 0.29873  0.77932  0.14536  Biso   1.000  O
  O48      1.0000 0.22270  0.79633  0.15578  Biso   1.000  O
  O49      1.0000 0.35398  0.83828  0.14728  Biso   1.000  O
  O50      1.0000 0.19687  0.86945  0.13937  Biso   1.000  O
  O51      1.0000 0.32746  0.90902  0.13191  Biso   1.000  O
  O52      1.0000 0.24985  0.92635  0.12792  Biso   1.000  O
  O53      1.0000 0.22523  0.00675  0.11649  Biso   1.000  O
  O54      1.0000 0.47999  0.28614  0.25754  Biso   1.000  O
  O55      1.0000 0.56040  0.26319  0.26022  Biso   1.000  O
  O56      1.0000 0.59992  0.25400  0.32780  Biso   1.000  O
  O57      1.0000 0.67543  0.23163  0.32907  Biso   1.000  O
  O58      1.0000 0.59678  0.24805  0.19094  Biso   1.000  O
  O59      1.0000 0.67089  0.22337  0.19205  Biso   1.000  O
  O60      1.0000 0.71131  0.21729  0.26008  Biso   1.000  O
  O61      1.0000 0.79201  0.19578  0.24723  Biso   1.000  O
  O62      1.0000 0.80870  0.18873  0.17101  Biso   1.000  O
  O63      1.0000 0.85083  0.18310  0.30246  Biso   1.000  O
  O64      1.0000 0.88209  0.17311  0.14546  Biso   1.000  O
  O65      1.0000 0.92183  0.16846  0.27619  Biso   1.000  O
  O66      1.0000 0.93921  0.16349  0.19864  Biso   1.000  O
  O67      1.0000 0.01981  0.15298  0.17420  Biso   1.000  O
  O68      1.0000 0.29693  0.30273  0.42664  Biso   1.000  O
  O69      1.0000 0.27396  0.30635  0.50701  Biso   1.000  O
  O70      1.0000 0.26365  0.37438  0.54540  Biso   1.000  O
  O71      1.0000 0.24127  0.37652  0.62090  Biso   1.000  O
  O72      1.0000 0.25998  0.23748  0.54456  Biso   1.000  O
  O73      1.0000 0.23530  0.23940  0.61866  Biso   1.000  O
  O74      1.0000 0.22810  0.30794  0.65794  Biso   1.000  O
  O75      1.0000 0.20682  0.29608  0.73887  Biso   1.000  O
  O76      1.0000 0.20078  0.20359  0.75670  Biso   1.000  O
  O77      1.0000 0.19295  0.33553  0.79664  Biso   1.000  O
  O78      1.0000 0.18560  0.17901  0.83053  Biso   1.000  O
  O79      1.0000 0.17878  0.31021  0.86809  Biso   1.000  O
  O80      1.0000 0.17511  0.23293  0.88677  Biso   1.000  O
  O81      1.0000 0.16503  0.20967  0.96778  Biso   1.000  O
  O82      1.0000 0.30594  0.12606  0.26919  Biso   1.000  O
  O83      1.0000 0.30367  0.04607  0.29352  Biso   1.000  O
  O84      1.0000 0.23628  0.00675  0.30447  Biso   1.000  O
  O85      1.0000 0.23541  0.93165  0.32812  Biso   1.000  O
  O86      1.0000 0.37318  0.00991  0.30812  Biso   1.000  O
  O87      1.0000 0.37251  0.93625  0.33404  Biso   1.000  O
  O88      1.0000 0.30462  0.89599  0.34191  Biso   1.000  O
  O89      1.0000 0.31785  0.81567  0.36454  Biso   1.000  O
  O90      1.0000 0.39388  0.79866  0.35413  Biso   1.000  O
  O91      1.0000 0.26259  0.75671  0.36262  Biso   1.000  O
  O92      1.0000 0.41971  0.72555  0.37054  Biso   1.000  O
  O93      1.0000 0.28912  0.68597  0.37800  Biso   1.000  O
  O94      1.0000 0.36672  0.66864  0.38198  Biso   1.000  O
  O95      1.0000 0.39135  0.58824  0.39341  Biso   1.000  O
  O96      1.0000 0.13659  0.30885  0.25236  Biso   1.000  O
  O97      1.0000 0.05618  0.33181  0.24968  Biso   1.000  O
  O98      1.0000 0.01666  0.34099  0.18211  Biso   1.000  O
  O99      1.0000 0.94115  0.36337  0.18084  Biso   1.000  O
  O100     1.0000 0.01979  0.34695  0.31896  Biso   1.000  O
  O101     1.0000 0.94569  0.37162  0.31786  Biso   1.000  O
  O102     1.0000 0.90527  0.37770  0.24983  Biso   1.000  O
  O103     1.0000 0.82456  0.39921  0.26268  Biso   1.000  O
  O104     1.0000 0.80788  0.40627  0.33889  Biso   1.000  O
  O105     1.0000 0.76575  0.41190  0.20745  Biso   1.000  O
  O106     1.0000 0.73449  0.42189  0.36445  Biso   1.000  O
  O107     1.0000 0.69475  0.42653  0.23372  Biso   1.000  O
  O108     1.0000 0.67737  0.43151  0.31127  Biso   1.000  O
  O109     1.0000 0.59677  0.44201  0.33570  Biso   1.000  O
  O110     1.0000 0.31964  0.29227  0.08327  Biso   1.000  O
  O111     1.0000 0.34262  0.28864  0.00290  Biso   1.000  O
  O112     1.0000 0.35293  0.22062  0.96450  Biso   1.000  O
  O113     1.0000 0.37531  0.21847  0.88901  Biso   1.000  O
  O114     1.0000 0.35659  0.35751  0.96534  Biso   1.000  O
  O115     1.0000 0.38127  0.35559  0.89125  Biso   1.000  O
  O116     1.0000 0.38848  0.28705  0.85196  Biso   1.000  O
  O117     1.0000 0.40976  0.29892  0.77103  Biso   1.000  O
  O118     1.0000 0.41580  0.39140  0.75321  Biso   1.000  O
  O119     1.0000 0.42363  0.25946  0.71327  Biso   1.000  O
  O120     1.0000 0.43097  0.41598  0.67937  Biso   1.000  O
  O121     1.0000 0.43780  0.28478  0.64182  Biso   1.000  O
  O122     1.0000 0.44147  0.36206  0.62314  Biso   1.000  O
  O123     1.0000 0.45154  0.38532  0.54212  Biso   1.000  O
  O124     1.0000 0.16469  0.71594  0.15780  Biso   1.000  O
  O125     1.0000 0.72838  0.20496  0.11296  Biso   1.000  O
  O126     1.0000 0.21823  0.16102  0.67748  Biso   1.000  O
  O127     1.0000 0.45189  0.87906  0.35210  Biso   1.000  O
  O128     1.0000 0.88820  0.39004  0.39694  Biso   1.000  O
  O129     1.0000 0.39835  0.43397  0.83243  Biso   1.000  O
  O130     1.0000 0.24924  0.43316  0.24250  Biso   1.000  O
  O131     1.0000 0.37382  0.43766  0.26151  Biso   1.000  O
  O132     1.0000 0.15495  0.01966  0.12190  Biso   1.000  O
  O133     1.0000 0.27309  0.05813  0.10462  Biso   1.000  O
  O134     1.0000 0.12434  0.68771  0.08945  Biso   1.000  O
  O135     1.0000 0.12187  0.72857  0.22673  Biso   1.000  O
  O136     1.0000 0.44417  0.28632  0.19610  Biso   1.000  O
  O137     1.0000 0.44837  0.30744  0.32039  Biso   1.000  O
  O138     1.0000 0.03261  0.15744  0.10382  Biso   1.000  O
  O139     1.0000 0.07140  0.14276  0.22227  Biso   1.000  O
  O140     1.0000 0.70128  0.13553  0.07375  Biso   1.000  O
  O141     1.0000 0.73984  0.27333  0.06898  Biso   1.000  O
  O142     1.0000 0.29813  0.24075  0.39183  Biso   1.000  O
  O143     1.0000 0.31718  0.36535  0.39396  Biso   1.000  O
  O144     1.0000 0.17068  0.13963  0.98176  Biso   1.000  O
  O145     1.0000 0.15401  0.25838  0.01858  Biso   1.000  O
  O146     1.0000 0.14945  0.12025  0.65104  Biso   1.000  O
  O147     1.0000 0.28736  0.11839  0.68968  Biso   1.000  O
  O148     1.0000 0.36734  0.16183  0.26741  Biso   1.000  O
  O149     1.0000 0.24276  0.15734  0.24839  Biso   1.000  O
  O150     1.0000 0.46163  0.57533  0.38800  Biso   1.000  O
  O151     1.0000 0.34349  0.53686  0.40529  Biso   1.000  O
  O152     1.0000 0.49224  0.90728  0.42046  Biso   1.000  O
  O153     1.0000 0.49471  0.86642  0.28317  Biso   1.000  O
  O154     1.0000 0.17241  0.30868  0.31380  Biso   1.000  O
  O155     1.0000 0.16820  0.28755  0.18952  Biso   1.000  O
  O156     1.0000 0.58397  0.43755  0.40608  Biso   1.000  O
  O157     1.0000 0.54518  0.45223  0.28763  Biso   1.000  O
  O158     1.0000 0.91530  0.45946  0.43616  Biso   1.000  O
  O159     1.0000 0.87673  0.32166  0.44093  Biso   1.000  O
  O160     1.0000 0.31845  0.35424  0.11807  Biso   1.000  O
  O161     1.0000 0.29940  0.22964  0.11595  Biso   1.000  O
  O162     1.0000 0.44590  0.45536  0.52814  Biso   1.000  O
  O163     1.0000 0.46256  0.33661  0.49132  Biso   1.000  O
  O164     1.0000 0.46713  0.47474  0.85887  Biso   1.000  O
  O165     1.0000 0.32922  0.47660  0.82022  Biso   1.000  O
