data_image0
_cell_length_a       17.1227
_cell_length_b       17.1227
_cell_length_c       17.1227
_cell_angle_alpha    90
_cell_angle_beta     90
_cell_angle_gamma    90

_symmetry_space_group_name_H-M    "P 1"
_symmetry_int_tables_number       1

loop_
  _symmetry_equiv_pos_as_xyz
  'x, y, z'

loop_
  _atom_site_label
  _atom_site_occupancy
  _atom_site_fract_x
  _atom_site_fract_y
  _atom_site_fract_z
  _atom_site_thermal_displace_type
  _atom_site_B_iso_or_equiv
  _atom_site_type_symbol
  C1       1.0000 0.56533  0.43467  0.43467  Biso   1.000  C
  C2       1.0000 0.43467  0.56533  0.43467  Biso   1.000  C
  C3       1.0000 0.43467  0.43467  0.56533  Biso   1.000  C
  C4       1.0000 0.56533  0.56533  0.56533  Biso   1.000  C
  C5       1.0000 0.79621  0.58474  0.58474  Biso   1.000  C
  C6       1.0000 0.92277  0.62871  0.62871  Biso   1.000  C
  C7       1.0000 0.20379  0.41526  0.58474  Biso   1.000  C
  C8       1.0000 0.02813  0.44024  0.64619  Biso   1.000  C
  C9       1.0000 0.20379  0.58474  0.41526  Biso   1.000  C
  C10      1.0000 0.79621  0.41526  0.41526  Biso   1.000  C
  C11      1.0000 0.58474  0.79621  0.58474  Biso   1.000  C
  C12      1.0000 0.55268  0.99642  0.62753  Biso   1.000  C
  C13      1.0000 0.58474  0.20379  0.41526  Biso   1.000  C
  C14      1.0000 0.41526  0.20379  0.58474  Biso   1.000  C
  C15      1.0000 0.39494  0.07132  0.64617  Biso   1.000  C
  C16      1.0000 0.41526  0.79621  0.41526  Biso   1.000  C
  C17      1.0000 0.58474  0.58474  0.79621  Biso   1.000  C
  C18      1.0000 0.41526  0.58474  0.20379  Biso   1.000  C
  C19      1.0000 0.39494  0.64617  0.07132  Biso   1.000  C
  C20      1.0000 0.58474  0.41526  0.20379  Biso   1.000  C
  C21      1.0000 0.41526  0.41526  0.79621  Biso   1.000  C
  C22      1.0000 0.39911  0.44022  0.01506  Biso   1.000  C
  C23      1.0000 0.83030  0.54430  0.54430  Biso   1.000  C
  C24      1.0000 0.91120  0.54510  0.54510  Biso   1.000  C
  C25      1.0000 0.16970  0.45570  0.54430  Biso   1.000  C
  C26      1.0000 0.08880  0.45490  0.54510  Biso   1.000  C
  C27      1.0000 0.16970  0.54430  0.45570  Biso   1.000  C
  C28      1.0000 0.08880  0.54510  0.45490  Biso   1.000  C
  C29      1.0000 0.83030  0.45570  0.45570  Biso   1.000  C
  C30      1.0000 0.91120  0.45490  0.45490  Biso   1.000  C
  C31      1.0000 0.54430  0.83030  0.54430  Biso   1.000  C
  C32      1.0000 0.54510  0.91120  0.54510  Biso   1.000  C
  C33      1.0000 0.54430  0.16970  0.45570  Biso   1.000  C
  C34      1.0000 0.54510  0.08880  0.45490  Biso   1.000  C
  C35      1.0000 0.45570  0.16970  0.54430  Biso   1.000  C
  C36      1.0000 0.45490  0.08880  0.54510  Biso   1.000  C
  C37      1.0000 0.45570  0.83030  0.45570  Biso   1.000  C
  C38      1.0000 0.45490  0.91120  0.45490  Biso   1.000  C
  C39      1.0000 0.54430  0.54430  0.83030  Biso   1.000  C
  C40      1.0000 0.54510  0.54510  0.91120  Biso   1.000  C
  C41      1.0000 0.45570  0.54430  0.16970  Biso   1.000  C
  C42      1.0000 0.45490  0.54510  0.08880  Biso   1.000  C
  C43      1.0000 0.54430  0.45570  0.16970  Biso   1.000  C
  C44      1.0000 0.54510  0.45490  0.08880  Biso   1.000  C
  C45      1.0000 0.45570  0.45570  0.83030  Biso   1.000  C
  C46      1.0000 0.45490  0.45490  0.91120  Biso   1.000  C
  C47      1.0000 0.71150  0.50000  0.50000  Biso   1.000  C
  C48      1.0000 0.78970  0.50000  0.50000  Biso   1.000  C
  C49      1.0000 0.95870  0.50000  0.50000  Biso   1.000  C
  C50      1.0000 0.28850  0.50000  0.50000  Biso   1.000  C
  C51      1.0000 0.21030  0.50000  0.50000  Biso   1.000  C
  C52      1.0000 0.04130  0.50000  0.50000  Biso   1.000  C
  C53      1.0000 0.50000  0.71150  0.50000  Biso   1.000  C
  C54      1.0000 0.50000  0.78970  0.50000  Biso   1.000  C
  C55      1.0000 0.50000  0.95870  0.50000  Biso   1.000  C
  C56      1.0000 0.50000  0.28850  0.50000  Biso   1.000  C
  C57      1.0000 0.50000  0.21030  0.50000  Biso   1.000  C
  C58      1.0000 0.50000  0.04130  0.50000  Biso   1.000  C
  C59      1.0000 0.50000  0.50000  0.71150  Biso   1.000  C
  C60      1.0000 0.50000  0.50000  0.78970  Biso   1.000  C
  C61      1.0000 0.50000  0.50000  0.95870  Biso   1.000  C
  C62      1.0000 0.50000  0.50000  0.28850  Biso   1.000  C
  C63      1.0000 0.50000  0.50000  0.21030  Biso   1.000  C
  C64      1.0000 0.50000  0.50000  0.04130  Biso   1.000  C
  C65      1.0000 0.50000  0.50000  0.50000  Biso   1.000  C
  C66      1.0000 0.67520  0.45380  0.45380  Biso   1.000  C
  C67      1.0000 0.95900  0.59070  0.59070  Biso   1.000  C
  C68      1.0000 0.32480  0.54620  0.45380  Biso   1.000  C
  C69      1.0000 0.04100  0.40930  0.59070  Biso   1.000  C
  C70      1.0000 0.32480  0.45380  0.54620  Biso   1.000  C
  C71      1.0000 0.67520  0.54620  0.54620  Biso   1.000  C
  C72      1.0000 0.45380  0.67520  0.45380  Biso   1.000  C
  C73      1.0000 0.59070  0.95900  0.59070  Biso   1.000  C
  C74      1.0000 0.45380  0.32480  0.54620  Biso   1.000  C
  C75      1.0000 0.54620  0.32480  0.45380  Biso   1.000  C
  C76      1.0000 0.40930  0.04100  0.59070  Biso   1.000  C
  C77      1.0000 0.54620  0.67520  0.54620  Biso   1.000  C
  C78      1.0000 0.45380  0.45380  0.67520  Biso   1.000  C
  C79      1.0000 0.54620  0.45380  0.32480  Biso   1.000  C
  C80      1.0000 0.40930  0.59070  0.04100  Biso   1.000  C
  C81      1.0000 0.45380  0.54620  0.32480  Biso   1.000  C
  C82      1.0000 0.54620  0.54620  0.67520  Biso   1.000  C
  C83      1.0000 0.40930  0.40930  0.95900  Biso   1.000  C
  C84      1.0000 0.05632  0.58620  0.41380  Biso   1.000  C
  C85      1.0000 0.94368  0.41380  0.41380  Biso   1.000  C
  C86      1.0000 0.58620  0.05632  0.41380  Biso   1.000  C
  C87      1.0000 0.41380  0.94368  0.41380  Biso   1.000  C
  C88      1.0000 0.58620  0.58620  0.94368  Biso   1.000  C
  C89      1.0000 0.58620  0.41380  0.05632  Biso   1.000  C
  O1       1.0000 0.62857  0.00669  0.00669  Biso   1.000  O
  O2       1.0000 0.75923  0.87603  0.00669  Biso   1.000  O
  O3       1.0000 0.62857  0.87603  0.87603  Biso   1.000  O
  O4       1.0000 0.75923  0.00669  0.87603  Biso   1.000  O
  O5       1.0000 0.77864  0.23757  0.85662  Biso   1.000  O
  O6       1.0000 0.82261  0.36413  0.81265  Biso   1.000  O
  O7       1.0000 0.60916  0.64515  0.85662  Biso   1.000  O
  O8       1.0000 0.63414  0.46949  0.79517  Biso   1.000  O
  O9       1.0000 0.77864  0.64515  0.02610  Biso   1.000  O
  O10      1.0000 0.60916  0.23757  0.02610  Biso   1.000  O
  O11      1.0000 0.99011  0.02610  0.85662  Biso   1.000  O
  O12      1.0000 0.19032  0.99404  0.81383  Biso   1.000  O
  O13      1.0000 0.39769  0.02610  0.02610  Biso   1.000  O
  O14      1.0000 0.39769  0.85662  0.85662  Biso   1.000  O
  O15      1.0000 0.26522  0.83630  0.79519  Biso   1.000  O
  O16      1.0000 0.99011  0.85662  0.02610  Biso   1.000  O
  O17      1.0000 0.77864  0.02610  0.64515  Biso   1.000  O
  O18      1.0000 0.77864  0.85662  0.23757  Biso   1.000  O
  O19      1.0000 0.84007  0.83630  0.37004  Biso   1.000  O
  O20      1.0000 0.60916  0.02610  0.23757  Biso   1.000  O
  O21      1.0000 0.60916  0.85662  0.64515  Biso   1.000  O
  O22      1.0000 0.63412  0.84047  0.42630  Biso   1.000  O
  O23      1.0000 0.73820  0.27166  0.89706  Biso   1.000  O
  O24      1.0000 0.73900  0.35256  0.89626  Biso   1.000  O
  O25      1.0000 0.64960  0.61106  0.89706  Biso   1.000  O
  O26      1.0000 0.64880  0.53016  0.89626  Biso   1.000  O
  O27      1.0000 0.73820  0.61106  0.98566  Biso   1.000  O
  O28      1.0000 0.73900  0.53016  0.98646  Biso   1.000  O
  O29      1.0000 0.64960  0.27166  0.98566  Biso   1.000  O
  O30      1.0000 0.64880  0.35256  0.98646  Biso   1.000  O
  O31      1.0000 0.02420  0.98566  0.89706  Biso   1.000  O
  O32      1.0000 0.10510  0.98646  0.89626  Biso   1.000  O
  O33      1.0000 0.36360  0.98566  0.98566  Biso   1.000  O
  O34      1.0000 0.28270  0.98646  0.98646  Biso   1.000  O
  O35      1.0000 0.36360  0.89706  0.89706  Biso   1.000  O
  O36      1.0000 0.28270  0.89626  0.89626  Biso   1.000  O
  O37      1.0000 0.02420  0.89706  0.98566  Biso   1.000  O
  O38      1.0000 0.10510  0.89626  0.98646  Biso   1.000  O
  O39      1.0000 0.73820  0.98566  0.61106  Biso   1.000  O
  O40      1.0000 0.73900  0.98646  0.53016  Biso   1.000  O
  O41      1.0000 0.73820  0.89706  0.27166  Biso   1.000  O
  O42      1.0000 0.73900  0.89626  0.35256  Biso   1.000  O
  O43      1.0000 0.64960  0.98566  0.27166  Biso   1.000  O
  O44      1.0000 0.64880  0.98646  0.35256  Biso   1.000  O
  O45      1.0000 0.64960  0.89706  0.61106  Biso   1.000  O
  O46      1.0000 0.64880  0.89626  0.53016  Biso   1.000  O
  O47      1.0000 0.69390  0.15286  0.94136  Biso   1.000  O
  O48      1.0000 0.69390  0.23106  0.94136  Biso   1.000  O
  O49      1.0000 0.69390  0.40006  0.94136  Biso   1.000  O
  O50      1.0000 0.69390  0.72986  0.94136  Biso   1.000  O
  O51      1.0000 0.69390  0.65166  0.94136  Biso   1.000  O
  O52      1.0000 0.69390  0.48266  0.94136  Biso   1.000  O
  O53      1.0000 0.90540  0.94136  0.94136  Biso   1.000  O
  O54      1.0000 0.98360  0.94136  0.94136  Biso   1.000  O
  O55      1.0000 0.15260  0.94136  0.94136  Biso   1.000  O
  O56      1.0000 0.48240  0.94136  0.94136  Biso   1.000  O
  O57      1.0000 0.40420  0.94136  0.94136  Biso   1.000  O
  O58      1.0000 0.23520  0.94136  0.94136  Biso   1.000  O
  O59      1.0000 0.69390  0.94136  0.72986  Biso   1.000  O
  O60      1.0000 0.69390  0.94136  0.65166  Biso   1.000  O
  O61      1.0000 0.69390  0.94136  0.48266  Biso   1.000  O
  O62      1.0000 0.69390  0.94136  0.15286  Biso   1.000  O
  O63      1.0000 0.69390  0.94136  0.23106  Biso   1.000  O
  O64      1.0000 0.69390  0.94136  0.40006  Biso   1.000  O
  O65      1.0000 0.69390  0.94136  0.94136  Biso   1.000  O
  O66      1.0000 0.64770  0.11656  0.98756  Biso   1.000  O
  O67      1.0000 0.78460  0.40036  0.85066  Biso   1.000  O
  O68      1.0000 0.74010  0.76616  0.98756  Biso   1.000  O
  O69      1.0000 0.60320  0.48236  0.85066  Biso   1.000  O
  O70      1.0000 0.64770  0.76616  0.89516  Biso   1.000  O
  O71      1.0000 0.74010  0.11656  0.89516  Biso   1.000  O
  O72      1.0000 0.86910  0.89516  0.98756  Biso   1.000  O
  O73      1.0000 0.15290  0.03206  0.85066  Biso   1.000  O
  O74      1.0000 0.51870  0.89516  0.89516  Biso   1.000  O
  O75      1.0000 0.51870  0.98756  0.98756  Biso   1.000  O
  O76      1.0000 0.23490  0.85066  0.85066  Biso   1.000  O
  O77      1.0000 0.86910  0.98756  0.89516  Biso   1.000  O
  O78      1.0000 0.64770  0.89516  0.76616  Biso   1.000  O
  O79      1.0000 0.64770  0.98756  0.11656  Biso   1.000  O
  O80      1.0000 0.78460  0.85066  0.40036  Biso   1.000  O
  O81      1.0000 0.74010  0.89516  0.11656  Biso   1.000  O
  O82      1.0000 0.74010  0.98756  0.76616  Biso   1.000  O
  O83      1.0000 0.60320  0.85066  0.48236  Biso   1.000  O
  O84      1.0000 0.78010  0.49768  0.02756  Biso   1.000  O
  O85      1.0000 0.60770  0.38504  0.02756  Biso   1.000  O
  O86      1.0000 0.25022  0.02756  0.02756  Biso   1.000  O
  O87      1.0000 0.13758  0.85516  0.02756  Biso   1.000  O
  O88      1.0000 0.78010  0.02756  0.49768  Biso   1.000  O
  O89      1.0000 0.60770  0.02756  0.38504  Biso   1.000  O
