data_image0
_cell_length_a       18.3149
_cell_length_b       18.3149
_cell_length_c       18.3149
_cell_angle_alpha    60.3295
_cell_angle_beta     60.3295
_cell_angle_gamma    60.3295

_symmetry_space_group_name_H-M    "P 1"
_symmetry_int_tables_number       1

loop_
  _symmetry_equiv_pos_as_xyz
  'x, y, z'

loop_
  _atom_site_label
  _atom_site_occupancy
  _atom_site_fract_x
  _atom_site_fract_y
  _atom_site_fract_z
  _atom_site_thermal_displace_type
  _atom_site_B_iso_or_equiv
  _atom_site_type_symbol
  Zn1      1.0000 0.20609  0.20609  0.20609  Biso   1.000  Zn
  Zn2      1.0000 0.79391  0.79391  0.79391  Biso   1.000  Zn
  Zn3      1.0000 0.20677  0.37952  0.20677  Biso   1.000  Zn
  Zn4      1.0000 0.20677  0.20677  0.37952  Biso   1.000  Zn
  Zn5      1.0000 0.37952  0.20677  0.20677  Biso   1.000  Zn
  Zn6      1.0000 0.62048  0.79323  0.79323  Biso   1.000  Zn
  Zn7      1.0000 0.79323  0.79323  0.62048  Biso   1.000  Zn
  Zn8      1.0000 0.79323  0.62048  0.79323  Biso   1.000  Zn
  H1       1.0000 0.04260  0.34350  0.56530  Biso   1.000  H
  H2       1.0000 0.56530  0.04260  0.34350  Biso   1.000  H
  H3       1.0000 0.34350  0.56530  0.04260  Biso   1.000  H
  H4       1.0000 0.65650  0.95740  0.43470  Biso   1.000  H
  H5       1.0000 0.95740  0.43470  0.65650  Biso   1.000  H
  H6       1.0000 0.43470  0.65650  0.95740  Biso   1.000  H
  H7       1.0000 0.95740  0.65650  0.43470  Biso   1.000  H
  H8       1.0000 0.43470  0.95740  0.65650  Biso   1.000  H
  H9       1.0000 0.65650  0.43470  0.95740  Biso   1.000  H
  H10      1.0000 0.34350  0.04260  0.56530  Biso   1.000  H
  H11      1.0000 0.04260  0.56530  0.34350  Biso   1.000  H
  H12      1.0000 0.56530  0.34350  0.04260  Biso   1.000  H
  H13      1.0000 0.04880  0.55860  0.04880  Biso   1.000  H
  H14      1.0000 0.04170  0.34450  0.04170  Biso   1.000  H
  H15      1.0000 0.04880  0.04880  0.55860  Biso   1.000  H
  H16      1.0000 0.04170  0.04170  0.34450  Biso   1.000  H
  H17      1.0000 0.55860  0.04880  0.04880  Biso   1.000  H
  H18      1.0000 0.34450  0.04170  0.04170  Biso   1.000  H
  H19      1.0000 0.44140  0.95120  0.95120  Biso   1.000  H
  H20      1.0000 0.65550  0.95830  0.95830  Biso   1.000  H
  H21      1.0000 0.95120  0.95120  0.44140  Biso   1.000  H
  H22      1.0000 0.95830  0.95830  0.65550  Biso   1.000  H
  H23      1.0000 0.95120  0.44140  0.95120  Biso   1.000  H
  H24      1.0000 0.95830  0.65550  0.95830  Biso   1.000  H
  C1       1.0000 0.02770  0.40510  0.53870  Biso   1.000  C
  C2       1.0000 0.53870  0.02770  0.40510  Biso   1.000  C
  C3       1.0000 0.40510  0.53870  0.02770  Biso   1.000  C
  C4       1.0000 0.59490  0.97230  0.46130  Biso   1.000  C
  C5       1.0000 0.97230  0.46130  0.59490  Biso   1.000  C
  C6       1.0000 0.46130  0.59490  0.97230  Biso   1.000  C
  C7       1.0000 0.97230  0.59490  0.46130  Biso   1.000  C
  C8       1.0000 0.46130  0.97230  0.59490  Biso   1.000  C
  C9       1.0000 0.59490  0.46130  0.97230  Biso   1.000  C
  C10      1.0000 0.40510  0.02770  0.53870  Biso   1.000  C
  C11      1.0000 0.02770  0.53870  0.40510  Biso   1.000  C
  C12      1.0000 0.53870  0.40510  0.02770  Biso   1.000  C
  C13      1.0000 0.11130  0.39010  0.11130  Biso   1.000  C
  C14      1.0000 0.05390  0.44400  0.05390  Biso   1.000  C
  C15      1.0000 0.02940  0.53530  0.02940  Biso   1.000  C
  C16      1.0000 0.02520  0.40600  0.02520  Biso   1.000  C
  C17      1.0000 0.11130  0.11130  0.39010  Biso   1.000  C
  C18      1.0000 0.05390  0.05390  0.44400  Biso   1.000  C
  C19      1.0000 0.02940  0.02940  0.53530  Biso   1.000  C
  C20      1.0000 0.02520  0.02520  0.40600  Biso   1.000  C
  C21      1.0000 0.39010  0.11130  0.11130  Biso   1.000  C
  C22      1.0000 0.44400  0.05390  0.05390  Biso   1.000  C
  C23      1.0000 0.53530  0.02940  0.02940  Biso   1.000  C
  C24      1.0000 0.40600  0.02520  0.02520  Biso   1.000  C
  C25      1.0000 0.60990  0.88870  0.88870  Biso   1.000  C
  C26      1.0000 0.55600  0.94610  0.94610  Biso   1.000  C
  C27      1.0000 0.46470  0.97060  0.97060  Biso   1.000  C
  C28      1.0000 0.59400  0.97480  0.97480  Biso   1.000  C
  C29      1.0000 0.88870  0.88870  0.60990  Biso   1.000  C
  C30      1.0000 0.94610  0.94610  0.55600  Biso   1.000  C
  C31      1.0000 0.97060  0.97060  0.46470  Biso   1.000  C
  C32      1.0000 0.97480  0.97480  0.59400  Biso   1.000  C
  C33      1.0000 0.88870  0.60990  0.88870  Biso   1.000  C
  C34      1.0000 0.94610  0.55600  0.94610  Biso   1.000  C
  C35      1.0000 0.97060  0.46470  0.97060  Biso   1.000  C
  C36      1.0000 0.97480  0.59400  0.97480  Biso   1.000  C
  C37      1.0000 0.11170  0.38940  0.38940  Biso   1.000  C
  C38      1.0000 0.05990  0.44245  0.44245  Biso   1.000  C
  C39      1.0000 0.38940  0.11170  0.38940  Biso   1.000  C
  C40      1.0000 0.44245  0.05990  0.44245  Biso   1.000  C
  C41      1.0000 0.38940  0.38940  0.11170  Biso   1.000  C
  C42      1.0000 0.44245  0.44245  0.05990  Biso   1.000  C
  C43      1.0000 0.61060  0.88830  0.61060  Biso   1.000  C
  C44      1.0000 0.55755  0.94010  0.55755  Biso   1.000  C
  C45      1.0000 0.88830  0.61060  0.61060  Biso   1.000  C
  C46      1.0000 0.94010  0.55755  0.55755  Biso   1.000  C
  C47      1.0000 0.61060  0.61060  0.88830  Biso   1.000  C
  C48      1.0000 0.55755  0.55755  0.94010  Biso   1.000  C
  O1       1.0000 0.13529  0.42759  0.30119  Biso   1.000  O
  O2       1.0000 0.30119  0.13529  0.42759  Biso   1.000  O
  O3       1.0000 0.42759  0.30119  0.13529  Biso   1.000  O
  O4       1.0000 0.57241  0.86471  0.69881  Biso   1.000  O
  O5       1.0000 0.86471  0.69881  0.57241  Biso   1.000  O
  O6       1.0000 0.69881  0.57241  0.86471  Biso   1.000  O
  O7       1.0000 0.86471  0.57241  0.69881  Biso   1.000  O
  O8       1.0000 0.69881  0.86471  0.57241  Biso   1.000  O
  O9       1.0000 0.57241  0.69881  0.86471  Biso   1.000  O
  O10      1.0000 0.42759  0.13529  0.30119  Biso   1.000  O
  O11      1.0000 0.13529  0.30119  0.42759  Biso   1.000  O
  O12      1.0000 0.30119  0.42759  0.13529  Biso   1.000  O
  O13      1.0000 0.25153  0.25153  0.25153  Biso   1.000  O
  O14      1.0000 0.74847  0.74847  0.74847  Biso   1.000  O
  O15      1.0000 0.13410  0.30220  0.13410  Biso   1.000  O
  O16      1.0000 0.13380  0.42820  0.13380  Biso   1.000  O
  O17      1.0000 0.13410  0.13410  0.30220  Biso   1.000  O
  O18      1.0000 0.13380  0.13380  0.42820  Biso   1.000  O
  O19      1.0000 0.30220  0.13410  0.13410  Biso   1.000  O
  O20      1.0000 0.42820  0.13380  0.13380  Biso   1.000  O
  O21      1.0000 0.69780  0.86590  0.86590  Biso   1.000  O
  O22      1.0000 0.57180  0.86620  0.86620  Biso   1.000  O
  O23      1.0000 0.86590  0.86590  0.69780  Biso   1.000  O
  O24      1.0000 0.86620  0.86620  0.57180  Biso   1.000  O
  O25      1.0000 0.86590  0.69780  0.86590  Biso   1.000  O
  O26      1.0000 0.86620  0.57180  0.86620  Biso   1.000  O
  Zn9      1.0000 0.58592  0.24267  0.59048  Biso   1.000  Zn
  Zn10     1.0000 0.58709  0.41521  0.59048  Biso   1.000  Zn
  Zn11     1.0000 0.41169  0.41521  0.59048  Biso   1.000  Zn
  Zn12     1.0000 0.58607  0.41478  0.41866  Biso   1.000  Zn
  Zn13     1.0000 0.00922  0.83000  0.00916  Biso   1.000  Zn
  Zn14     1.0000 0.01038  0.00254  0.00916  Biso   1.000  Zn
  Zn15     1.0000 0.18462  0.83000  0.00916  Biso   1.000  Zn
  Zn16     1.0000 0.01024  0.83043  0.18098  Biso   1.000  Zn
  H25      1.0000 0.44670  0.05847  0.75046  Biso   1.000  H
  H26      1.0000 0.75066  0.57551  0.45439  Biso   1.000  H
  H27      1.0000 0.22405  0.27895  0.75046  Biso   1.000  H
  H28      1.0000 0.74936  0.57496  0.23482  Biso   1.000  H
  H29      1.0000 0.22430  0.57551  0.45439  Biso   1.000  H
  H30      1.0000 0.75041  0.27895  0.75046  Biso   1.000  H
  H31      1.0000 0.44714  0.57496  0.23482  Biso   1.000  H
  H32      1.0000 0.74893  0.05847  0.75046  Biso   1.000  H
  H33      1.0000 0.74736  0.27766  0.23482  Biso   1.000  H
  H34      1.0000 0.45019  0.57625  0.75046  Biso   1.000  H
  H35      1.0000 0.74718  0.05772  0.45439  Biso   1.000  H
  H36      1.0000 0.22605  0.57625  0.75046  Biso   1.000  H
  H37      1.0000 0.14612  0.66896  0.84918  Biso   1.000  H
  H38      1.0000 0.84913  0.18749  0.14525  Biso   1.000  H
  H39      1.0000 0.37026  0.66896  0.84918  Biso   1.000  H
  H40      1.0000 0.84894  0.96755  0.36482  Biso   1.000  H
  H41      1.0000 0.37201  0.66970  0.14525  Biso   1.000  H
  H42      1.0000 0.84738  0.18675  0.84918  Biso   1.000  H
  H43      1.0000 0.14917  0.67026  0.36482  Biso   1.000  H
  H44      1.0000 0.84589  0.96626  0.84918  Biso   1.000  H
  H45      1.0000 0.84694  0.67026  0.36482  Biso   1.000  H
  H46      1.0000 0.14960  0.18675  0.84918  Biso   1.000  H
  H47      1.0000 0.84564  0.66970  0.14525  Biso   1.000  H
  H48      1.0000 0.37226  0.96626  0.84918  Biso   1.000  H
  C49      1.0000 0.38297  0.08493  0.76866  Biso   1.000  C
  C50      1.0000 0.76899  0.59363  0.39168  Biso   1.000  C
  C51      1.0000 0.25059  0.21603  0.76866  Biso   1.000  C
  C52      1.0000 0.76822  0.59330  0.26113  Biso   1.000  C
  C53      1.0000 0.25090  0.59363  0.39168  Biso   1.000  C
  C54      1.0000 0.76868  0.21603  0.76866  Biso   1.000  C
  C55      1.0000 0.38340  0.59330  0.26113  Biso   1.000  C
  C56      1.0000 0.76780  0.08493  0.76866  Biso   1.000  C
  C57      1.0000 0.76568  0.21475  0.26113  Biso   1.000  C
  C58      1.0000 0.38640  0.59457  0.76866  Biso   1.000  C
  C59      1.0000 0.76557  0.08398  0.39168  Biso   1.000  C
  C60      1.0000 0.25313  0.59457  0.76866  Biso   1.000  C
  C61      1.0000 0.20990  0.65064  0.83098  Biso   1.000  C
  C62      1.0000 0.83074  0.16123  0.20796  Biso   1.000  C
  C63      1.0000 0.34317  0.65064  0.83098  Biso   1.000  C
  C64      1.0000 0.83063  0.03046  0.33851  Biso   1.000  C
  C65      1.0000 0.34540  0.65158  0.20796  Biso   1.000  C
  C66      1.0000 0.82851  0.16028  0.83098  Biso   1.000  C
  C67      1.0000 0.21290  0.65191  0.33851  Biso   1.000  C
  C68      1.0000 0.82763  0.02919  0.83098  Biso   1.000  C
  C69      1.0000 0.82808  0.65191  0.33851  Biso   1.000  C
  C70      1.0000 0.21333  0.16028  0.83098  Biso   1.000  C
  C71      1.0000 0.82731  0.65158  0.20796  Biso   1.000  C
  C72      1.0000 0.34572  0.02919  0.83098  Biso   1.000  C
  C73      1.0000 0.40243  0.23445  0.68482  Biso   1.000  C
  C74      1.0000 0.34409  0.17726  0.74192  Biso   1.000  C
  C75      1.0000 0.68296  0.50949  0.41024  Biso   1.000  C
  C76      1.0000 0.74130  0.56669  0.35314  Biso   1.000  C
  C77      1.0000 0.40266  0.50949  0.41024  Biso   1.000  C
  C78      1.0000 0.34442  0.56669  0.35314  Biso   1.000  C
  C79      1.0000 0.68273  0.23445  0.68482  Biso   1.000  C
  C80      1.0000 0.74097  0.17726  0.74192  Biso   1.000  C
  C81      1.0000 0.68110  0.23376  0.41024  Biso   1.000  C
  C82      1.0000 0.73867  0.17628  0.35314  Biso   1.000  C
  C83      1.0000 0.40429  0.51018  0.68482  Biso   1.000  C
  C84      1.0000 0.34672  0.56766  0.74192  Biso   1.000  C
  C85      1.0000 0.19202  0.73503  0.91482  Biso   1.000  C
  C86      1.0000 0.24959  0.67755  0.85771  Biso   1.000  C
  C87      1.0000 0.91520  0.01145  0.18940  Biso   1.000  C
  C88      1.0000 0.85764  0.06893  0.24650  Biso   1.000  C
  C89      1.0000 0.19364  0.73572  0.18940  Biso   1.000  C
  C90      1.0000 0.25189  0.67853  0.24650  Biso   1.000  C
  C91      1.0000 0.91358  0.01076  0.91482  Biso   1.000  C
  C92      1.0000 0.85534  0.06796  0.85771  Biso   1.000  C
  C93      1.0000 0.91335  0.73572  0.18940  Biso   1.000  C
  C94      1.0000 0.85501  0.67853  0.24650  Biso   1.000  C
  C95      1.0000 0.19387  0.01076  0.91482  Biso   1.000  C
  C96      1.0000 0.25221  0.06796  0.85771  Biso   1.000  C
  O27      1.0000 0.54269  0.37197  0.54753  Biso   1.000  O
  O28      1.0000 0.05361  0.87324  0.05211  Biso   1.000  O
  O29      1.0000 0.48660  0.19547  0.66279  Biso   1.000  O
  O30      1.0000 0.66080  0.48757  0.49307  Biso   1.000  O
  O31      1.0000 0.36329  0.31758  0.66279  Biso   1.000  O
  O32      1.0000 0.66008  0.48726  0.37148  Biso   1.000  O
  O33      1.0000 0.36343  0.48757  0.49307  Biso   1.000  O
  O34      1.0000 0.66066  0.31758  0.66279  Biso   1.000  O
  O35      1.0000 0.48684  0.48726  0.37148  Biso   1.000  O
  O36      1.0000 0.65984  0.19547  0.66279  Biso   1.000  O
  O37      1.0000 0.65894  0.31685  0.37148  Biso   1.000  O
  O38      1.0000 0.48856  0.48800  0.66279  Biso   1.000  O
  O39      1.0000 0.65884  0.19505  0.49307  Biso   1.000  O
  O40      1.0000 0.36444  0.48800  0.66279  Biso   1.000  O
  O41      1.0000 0.10774  0.75722  0.93685  Biso   1.000  O
  O42      1.0000 0.93747  0.05016  0.10657  Biso   1.000  O
  O43      1.0000 0.23187  0.75722  0.93685  Biso   1.000  O
  O44      1.0000 0.93737  0.92837  0.22816  Biso   1.000  O
  O45      1.0000 0.23287  0.75764  0.10657  Biso   1.000  O
  O46      1.0000 0.93647  0.04974  0.93685  Biso   1.000  O
  O47      1.0000 0.10946  0.75795  0.22816  Biso   1.000  O
  O48      1.0000 0.93564  0.92764  0.93685  Biso   1.000  O
  O49      1.0000 0.93622  0.75795  0.22816  Biso   1.000  O
  O50      1.0000 0.10971  0.04974  0.93685  Biso   1.000  O
  O51      1.0000 0.93550  0.75764  0.10657  Biso   1.000  O
  O52      1.0000 0.23301  0.92764  0.93685  Biso   1.000  O
