data_image0
_cell_length_a       18.3149
_cell_length_b       18.3149
_cell_length_c       18.3149
_cell_angle_alpha    60.3295
_cell_angle_beta     60.3295
_cell_angle_gamma    60.3295

_symmetry_space_group_name_H-M    "P 1"
_symmetry_int_tables_number       1

loop_
  _symmetry_equiv_pos_as_xyz
  'x, y, z'

loop_
  _atom_site_label
  _atom_site_occupancy
  _atom_site_fract_x
  _atom_site_fract_y
  _atom_site_fract_z
  _atom_site_thermal_displace_type
  _atom_site_B_iso_or_equiv
  _atom_site_type_symbol
  Zn1      1.0000 0.20609  0.20609  0.20609  Biso   1.000  Zn
  Zn2      1.0000 0.79391  0.79391  0.79391  Biso   1.000  Zn
  Zn3      1.0000 0.20677  0.37952  0.20677  Biso   1.000  Zn
  Zn4      1.0000 0.20677  0.20677  0.37952  Biso   1.000  Zn
  Zn5      1.0000 0.37952  0.20677  0.20677  Biso   1.000  Zn
  Zn6      1.0000 0.62048  0.79323  0.79323  Biso   1.000  Zn
  Zn7      1.0000 0.79323  0.79323  0.62048  Biso   1.000  Zn
  Zn8      1.0000 0.79323  0.62048  0.79323  Biso   1.000  Zn
  H1       1.0000 0.04260  0.34350  0.56530  Biso   1.000  H
  H2       1.0000 0.56530  0.04260  0.34350  Biso   1.000  H
  H3       1.0000 0.34350  0.56530  0.04260  Biso   1.000  H
  H4       1.0000 0.65650  0.95740  0.43470  Biso   1.000  H
  H5       1.0000 0.95740  0.43470  0.65650  Biso   1.000  H
  H6       1.0000 0.43470  0.65650  0.95740  Biso   1.000  H
  H7       1.0000 0.95740  0.65650  0.43470  Biso   1.000  H
  H8       1.0000 0.43470  0.95740  0.65650  Biso   1.000  H
  H9       1.0000 0.65650  0.43470  0.95740  Biso   1.000  H
  H10      1.0000 0.34350  0.04260  0.56530  Biso   1.000  H
  H11      1.0000 0.04260  0.56530  0.34350  Biso   1.000  H
  H12      1.0000 0.56530  0.34350  0.04260  Biso   1.000  H
  H13      1.0000 0.04880  0.55860  0.04880  Biso   1.000  H
  H14      1.0000 0.04170  0.34450  0.04170  Biso   1.000  H
  H15      1.0000 0.04880  0.04880  0.55860  Biso   1.000  H
  H16      1.0000 0.04170  0.04170  0.34450  Biso   1.000  H
  H17      1.0000 0.55860  0.04880  0.04880  Biso   1.000  H
  H18      1.0000 0.34450  0.04170  0.04170  Biso   1.000  H
  H19      1.0000 0.44140  0.95120  0.95120  Biso   1.000  H
  H20      1.0000 0.65550  0.95830  0.95830  Biso   1.000  H
  H21      1.0000 0.95120  0.95120  0.44140  Biso   1.000  H
  H22      1.0000 0.95830  0.95830  0.65550  Biso   1.000  H
  H23      1.0000 0.95120  0.44140  0.95120  Biso   1.000  H
  H24      1.0000 0.95830  0.65550  0.95830  Biso   1.000  H
  C1       1.0000 0.02770  0.40510  0.53870  Biso   1.000  C
  C2       1.0000 0.53870  0.02770  0.40510  Biso   1.000  C
  C3       1.0000 0.40510  0.53870  0.02770  Biso   1.000  C
  C4       1.0000 0.59490  0.97230  0.46130  Biso   1.000  C
  C5       1.0000 0.97230  0.46130  0.59490  Biso   1.000  C
  C6       1.0000 0.46130  0.59490  0.97230  Biso   1.000  C
  C7       1.0000 0.97230  0.59490  0.46130  Biso   1.000  C
  C8       1.0000 0.46130  0.97230  0.59490  Biso   1.000  C
  C9       1.0000 0.59490  0.46130  0.97230  Biso   1.000  C
  C10      1.0000 0.40510  0.02770  0.53870  Biso   1.000  C
  C11      1.0000 0.02770  0.53870  0.40510  Biso   1.000  C
  C12      1.0000 0.53870  0.40510  0.02770  Biso   1.000  C
  C13      1.0000 0.11130  0.39010  0.11130  Biso   1.000  C
  C14      1.0000 0.05390  0.44400  0.05390  Biso   1.000  C
  C15      1.0000 0.02940  0.53530  0.02940  Biso   1.000  C
  C16      1.0000 0.02520  0.40600  0.02520  Biso   1.000  C
  C17      1.0000 0.11130  0.11130  0.39010  Biso   1.000  C
  C18      1.0000 0.05390  0.05390  0.44400  Biso   1.000  C
  C19      1.0000 0.02940  0.02940  0.53530  Biso   1.000  C
  C20      1.0000 0.02520  0.02520  0.40600  Biso   1.000  C
  C21      1.0000 0.39010  0.11130  0.11130  Biso   1.000  C
  C22      1.0000 0.44400  0.05390  0.05390  Biso   1.000  C
  C23      1.0000 0.53530  0.02940  0.02940  Biso   1.000  C
  C24      1.0000 0.40600  0.02520  0.02520  Biso   1.000  C
  C25      1.0000 0.60990  0.88870  0.88870  Biso   1.000  C
  C26      1.0000 0.55600  0.94610  0.94610  Biso   1.000  C
  C27      1.0000 0.46470  0.97060  0.97060  Biso   1.000  C
  C28      1.0000 0.59400  0.97480  0.97480  Biso   1.000  C
  C29      1.0000 0.88870  0.88870  0.60990  Biso   1.000  C
  C30      1.0000 0.94610  0.94610  0.55600  Biso   1.000  C
  C31      1.0000 0.97060  0.97060  0.46470  Biso   1.000  C
  C32      1.0000 0.97480  0.97480  0.59400  Biso   1.000  C
  C33      1.0000 0.88870  0.60990  0.88870  Biso   1.000  C
  C34      1.0000 0.94610  0.55600  0.94610  Biso   1.000  C
  C35      1.0000 0.97060  0.46470  0.97060  Biso   1.000  C
  C36      1.0000 0.97480  0.59400  0.97480  Biso   1.000  C
  C37      1.0000 0.11170  0.38940  0.38940  Biso   1.000  C
  C38      1.0000 0.05990  0.44245  0.44245  Biso   1.000  C
  C39      1.0000 0.38940  0.11170  0.38940  Biso   1.000  C
  C40      1.0000 0.44245  0.05990  0.44245  Biso   1.000  C
  C41      1.0000 0.38940  0.38940  0.11170  Biso   1.000  C
  C42      1.0000 0.44245  0.44245  0.05990  Biso   1.000  C
  C43      1.0000 0.61060  0.88830  0.61060  Biso   1.000  C
  C44      1.0000 0.55755  0.94010  0.55755  Biso   1.000  C
  C45      1.0000 0.88830  0.61060  0.61060  Biso   1.000  C
  C46      1.0000 0.94010  0.55755  0.55755  Biso   1.000  C
  C47      1.0000 0.61060  0.61060  0.88830  Biso   1.000  C
  C48      1.0000 0.55755  0.55755  0.94010  Biso   1.000  C
  O1       1.0000 0.13529  0.42759  0.30119  Biso   1.000  O
  O2       1.0000 0.30119  0.13529  0.42759  Biso   1.000  O
  O3       1.0000 0.42759  0.30119  0.13529  Biso   1.000  O
  O4       1.0000 0.57241  0.86471  0.69881  Biso   1.000  O
  O5       1.0000 0.86471  0.69881  0.57241  Biso   1.000  O
  O6       1.0000 0.69881  0.57241  0.86471  Biso   1.000  O
  O7       1.0000 0.86471  0.57241  0.69881  Biso   1.000  O
  O8       1.0000 0.69881  0.86471  0.57241  Biso   1.000  O
  O9       1.0000 0.57241  0.69881  0.86471  Biso   1.000  O
  O10      1.0000 0.42759  0.13529  0.30119  Biso   1.000  O
  O11      1.0000 0.13529  0.30119  0.42759  Biso   1.000  O
  O12      1.0000 0.30119  0.42759  0.13529  Biso   1.000  O
  O13      1.0000 0.25153  0.25153  0.25153  Biso   1.000  O
  O14      1.0000 0.74847  0.74847  0.74847  Biso   1.000  O
  O15      1.0000 0.13410  0.30220  0.13410  Biso   1.000  O
  O16      1.0000 0.13380  0.42820  0.13380  Biso   1.000  O
  O17      1.0000 0.13410  0.13410  0.30220  Biso   1.000  O
  O18      1.0000 0.13380  0.13380  0.42820  Biso   1.000  O
  O19      1.0000 0.30220  0.13410  0.13410  Biso   1.000  O
  O20      1.0000 0.42820  0.13380  0.13380  Biso   1.000  O
  O21      1.0000 0.69780  0.86590  0.86590  Biso   1.000  O
  O22      1.0000 0.57180  0.86620  0.86620  Biso   1.000  O
  O23      1.0000 0.86590  0.86590  0.69780  Biso   1.000  O
  O24      1.0000 0.86620  0.86620  0.57180  Biso   1.000  O
  O25      1.0000 0.86590  0.69780  0.86590  Biso   1.000  O
  O26      1.0000 0.86620  0.57180  0.86620  Biso   1.000  O
  Zn9      1.0000 0.58629  0.24224  0.59018  Biso   1.000  Zn
  Zn10     1.0000 0.58746  0.41484  0.59018  Biso   1.000  Zn
  Zn11     1.0000 0.41201  0.41484  0.59018  Biso   1.000  Zn
  Zn12     1.0000 0.58645  0.41441  0.41829  Biso   1.000  Zn
  Zn13     1.0000 0.01063  0.82924  0.00846  Biso   1.000  Zn
  Zn14     1.0000 0.01178  0.00184  0.00847  Biso   1.000  Zn
  Zn15     1.0000 0.18607  0.82925  0.00846  Biso   1.000  Zn
  Zn16     1.0000 0.01163  0.82968  0.18035  Biso   1.000  Zn
  H25      1.0000 0.44720  0.05766  0.75027  Biso   1.000  H
  H26      1.0000 0.75117  0.57526  0.45420  Biso   1.000  H
  H27      1.0000 0.22398  0.27870  0.75027  Biso   1.000  H
  H28      1.0000 0.74987  0.57471  0.23408  Biso   1.000  H
  H29      1.0000 0.22423  0.57526  0.45420  Biso   1.000  H
  H30      1.0000 0.75092  0.27870  0.75027  Biso   1.000  H
  H31      1.0000 0.44763  0.57471  0.23408  Biso   1.000  H
  H32      1.0000 0.74943  0.05766  0.75027  Biso   1.000  H
  H33      1.0000 0.74787  0.27740  0.23408  Biso   1.000  H
  H34      1.0000 0.45069  0.57600  0.75027  Biso   1.000  H
  H35      1.0000 0.74768  0.05692  0.45420  Biso   1.000  H
  H36      1.0000 0.22598  0.57600  0.75027  Biso   1.000  H
  H37      1.0000 0.14740  0.66808  0.84837  Biso   1.000  H
  H38      1.0000 0.85040  0.18717  0.14444  Biso   1.000  H
  H39      1.0000 0.37210  0.66808  0.84837  Biso   1.000  H
  H40      1.0000 0.85022  0.96668  0.36456  Biso   1.000  H
  H41      1.0000 0.37385  0.66882  0.14444  Biso   1.000  H
  H42      1.0000 0.84865  0.18643  0.84837  Biso   1.000  H
  H43      1.0000 0.15045  0.66938  0.36456  Biso   1.000  H
  H44      1.0000 0.84716  0.96539  0.84837  Biso   1.000  H
  H45      1.0000 0.84821  0.66938  0.36456  Biso   1.000  H
  H46      1.0000 0.15088  0.18643  0.84837  Biso   1.000  H
  H47      1.0000 0.84691  0.66882  0.14444  Biso   1.000  H
  H48      1.0000 0.37410  0.96539  0.84837  Biso   1.000  H
  C49      1.0000 0.38357  0.08409  0.76844  Biso   1.000  C
  C50      1.0000 0.76946  0.59335  0.39159  Biso   1.000  C
  C51      1.0000 0.25049  0.21588  0.76844  Biso   1.000  C
  C52      1.0000 0.76869  0.59302  0.26035  Biso   1.000  C
  C53      1.0000 0.25081  0.59335  0.39159  Biso   1.000  C
  C54      1.0000 0.76915  0.21588  0.76844  Biso   1.000  C
  C55      1.0000 0.38400  0.59302  0.26035  Biso   1.000  C
  C56      1.0000 0.76826  0.08409  0.76844  Biso   1.000  C
  C57      1.0000 0.76614  0.21460  0.26035  Biso   1.000  C
  C58      1.0000 0.38701  0.59429  0.76844  Biso   1.000  C
  C59      1.0000 0.76603  0.08314  0.39159  Biso   1.000  C
  C60      1.0000 0.25304  0.59429  0.76844  Biso   1.000  C
  C61      1.0000 0.21107  0.64979  0.83020  Biso   1.000  C
  C62      1.0000 0.83205  0.16094  0.20705  Biso   1.000  C
  C63      1.0000 0.34504  0.64979  0.83020  Biso   1.000  C
  C64      1.0000 0.83194  0.02948  0.33829  Biso   1.000  C
  C65      1.0000 0.34727  0.65074  0.20705  Biso   1.000  C
  C66      1.0000 0.82982  0.15999  0.83020  Biso   1.000  C
  C67      1.0000 0.21408  0.65107  0.33829  Biso   1.000  C
  C68      1.0000 0.82893  0.02821  0.83020  Biso   1.000  C
  C69      1.0000 0.82939  0.65107  0.33829  Biso   1.000  C
  C70      1.0000 0.21451  0.15999  0.83020  Biso   1.000  C
  C71      1.0000 0.82862  0.65074  0.20705  Biso   1.000  C
  C72      1.0000 0.34759  0.02821  0.83020  Biso   1.000  C
  C73      1.0000 0.40267  0.23395  0.68461  Biso   1.000  C
  C74      1.0000 0.34431  0.17673  0.74173  Biso   1.000  C
  C75      1.0000 0.68344  0.50922  0.40980  Biso   1.000  C
  C76      1.0000 0.74179  0.56643  0.35267  Biso   1.000  C
  C77      1.0000 0.40290  0.50922  0.40980  Biso   1.000  C
  C78      1.0000 0.34464  0.56643  0.35267  Biso   1.000  C
  C79      1.0000 0.68320  0.23395  0.68461  Biso   1.000  C
  C80      1.0000 0.74147  0.17673  0.74173  Biso   1.000  C
  C81      1.0000 0.68158  0.23326  0.40980  Biso   1.000  C
  C82      1.0000 0.73917  0.17575  0.35267  Biso   1.000  C
  C83      1.0000 0.40453  0.50991  0.68461  Biso   1.000  C
  C84      1.0000 0.34694  0.56741  0.74173  Biso   1.000  C
  C85      1.0000 0.19355  0.73418  0.91403  Biso   1.000  C
  C86      1.0000 0.25114  0.67667  0.85691  Biso   1.000  C
  C87      1.0000 0.91650  0.01083  0.18884  Biso   1.000  C
  C88      1.0000 0.85891  0.06833  0.24597  Biso   1.000  C
  C89      1.0000 0.19518  0.73487  0.18884  Biso   1.000  C
  C90      1.0000 0.25344  0.67765  0.24597  Biso   1.000  C
  C91      1.0000 0.91488  0.01014  0.91403  Biso   1.000  C
  C92      1.0000 0.85661  0.06736  0.85691  Biso   1.000  C
  C93      1.0000 0.91465  0.73487  0.18884  Biso   1.000  C
  C94      1.0000 0.85629  0.67765  0.24597  Biso   1.000  C
  C95      1.0000 0.19541  0.01014  0.91403  Biso   1.000  C
  C96      1.0000 0.25377  0.06736  0.85691  Biso   1.000  C
  O27      1.0000 0.54305  0.37158  0.54720  Biso   1.000  O
  O28      1.0000 0.05503  0.87250  0.05144  Biso   1.000  O
  O29      1.0000 0.48699  0.19491  0.66253  Biso   1.000  O
  O30      1.0000 0.66124  0.48725  0.49278  Biso   1.000  O
  O31      1.0000 0.36348  0.31722  0.66253  Biso   1.000  O
  O32      1.0000 0.66052  0.48695  0.37098  Biso   1.000  O
  O33      1.0000 0.36362  0.48725  0.49278  Biso   1.000  O
  O34      1.0000 0.66109  0.31722  0.66253  Biso   1.000  O
  O35      1.0000 0.48723  0.48695  0.37098  Biso   1.000  O
  O36      1.0000 0.66027  0.19491  0.66253  Biso   1.000  O
  O37      1.0000 0.65937  0.31649  0.37098  Biso   1.000  O
  O38      1.0000 0.48896  0.48768  0.66253  Biso   1.000  O
  O39      1.0000 0.65927  0.19449  0.49278  Biso   1.000  O
  O40      1.0000 0.36462  0.48768  0.66253  Biso   1.000  O
  O41      1.0000 0.10912  0.75641  0.93611  Biso   1.000  O
  O42      1.0000 0.93881  0.04960  0.10586  Biso   1.000  O
  O43      1.0000 0.23346  0.75641  0.93611  Biso   1.000  O
  O44      1.0000 0.93871  0.92760  0.22766  Biso   1.000  O
  O45      1.0000 0.23446  0.75683  0.10586  Biso   1.000  O
  O46      1.0000 0.93781  0.04917  0.93611  Biso   1.000  O
  O47      1.0000 0.11085  0.75714  0.22766  Biso   1.000  O
  O48      1.0000 0.93699  0.92687  0.93611  Biso   1.000  O
  O49      1.0000 0.93756  0.75714  0.22766  Biso   1.000  O
  O50      1.0000 0.11109  0.04917  0.93611  Biso   1.000  O
  O51      1.0000 0.93684  0.75683  0.10586  Biso   1.000  O
  O52      1.0000 0.23461  0.92687  0.93611  Biso   1.000  O
