data_image0
_cell_length_a       18.3149
_cell_length_b       18.3149
_cell_length_c       18.3149
_cell_angle_alpha    60.3295
_cell_angle_beta     60.3295
_cell_angle_gamma    60.3295

_symmetry_space_group_name_H-M    "P 1"
_symmetry_int_tables_number       1

loop_
  _symmetry_equiv_pos_as_xyz
  'x, y, z'

loop_
  _atom_site_label
  _atom_site_occupancy
  _atom_site_fract_x
  _atom_site_fract_y
  _atom_site_fract_z
  _atom_site_thermal_displace_type
  _atom_site_B_iso_or_equiv
  _atom_site_type_symbol
  C1       1.0000 0.20609  0.20609  0.20609  Biso   1.000  C
  C2       1.0000 0.79391  0.79391  0.79391  Biso   1.000  C
  C3       1.0000 0.20677  0.37952  0.20677  Biso   1.000  C
  C4       1.0000 0.20677  0.20677  0.37952  Biso   1.000  C
  C5       1.0000 0.37952  0.20677  0.20677  Biso   1.000  C
  C6       1.0000 0.62048  0.79323  0.79323  Biso   1.000  C
  C7       1.0000 0.79323  0.79323  0.62048  Biso   1.000  C
  C8       1.0000 0.79323  0.62048  0.79323  Biso   1.000  C
  C9       1.0000 0.04260  0.34350  0.56530  Biso   1.000  C
  C10      1.0000 0.56530  0.04260  0.34350  Biso   1.000  C
  C11      1.0000 0.34350  0.56530  0.04260  Biso   1.000  C
  C12      1.0000 0.65650  0.95740  0.43470  Biso   1.000  C
  C13      1.0000 0.95740  0.43470  0.65650  Biso   1.000  C
  C14      1.0000 0.43470  0.65650  0.95740  Biso   1.000  C
  C15      1.0000 0.95740  0.65650  0.43470  Biso   1.000  C
  C16      1.0000 0.43470  0.95740  0.65650  Biso   1.000  C
  C17      1.0000 0.65650  0.43470  0.95740  Biso   1.000  C
  C18      1.0000 0.34350  0.04260  0.56530  Biso   1.000  C
  C19      1.0000 0.04260  0.56530  0.34350  Biso   1.000  C
  C20      1.0000 0.56530  0.34350  0.04260  Biso   1.000  C
  C21      1.0000 0.04880  0.55860  0.04880  Biso   1.000  C
  C22      1.0000 0.04170  0.34450  0.04170  Biso   1.000  C
  C23      1.0000 0.04880  0.04880  0.55860  Biso   1.000  C
  C24      1.0000 0.04170  0.04170  0.34450  Biso   1.000  C
  C25      1.0000 0.55860  0.04880  0.04880  Biso   1.000  C
  C26      1.0000 0.34450  0.04170  0.04170  Biso   1.000  C
  C27      1.0000 0.44140  0.95120  0.95120  Biso   1.000  C
  C28      1.0000 0.65550  0.95830  0.95830  Biso   1.000  C
  C29      1.0000 0.95120  0.95120  0.44140  Biso   1.000  C
  C30      1.0000 0.95830  0.95830  0.65550  Biso   1.000  C
  C31      1.0000 0.95120  0.44140  0.95120  Biso   1.000  C
  C32      1.0000 0.95830  0.65550  0.95830  Biso   1.000  C
  C33      1.0000 0.02770  0.40510  0.53870  Biso   1.000  C
  C34      1.0000 0.53870  0.02770  0.40510  Biso   1.000  C
  C35      1.0000 0.40510  0.53870  0.02770  Biso   1.000  C
  C36      1.0000 0.59490  0.97230  0.46130  Biso   1.000  C
  C37      1.0000 0.97230  0.46130  0.59490  Biso   1.000  C
  C38      1.0000 0.46130  0.59490  0.97230  Biso   1.000  C
  C39      1.0000 0.97230  0.59490  0.46130  Biso   1.000  C
  C40      1.0000 0.46130  0.97230  0.59490  Biso   1.000  C
  C41      1.0000 0.59490  0.46130  0.97230  Biso   1.000  C
  C42      1.0000 0.40510  0.02770  0.53870  Biso   1.000  C
  C43      1.0000 0.02770  0.53870  0.40510  Biso   1.000  C
  C44      1.0000 0.53870  0.40510  0.02770  Biso   1.000  C
  C45      1.0000 0.11130  0.39010  0.11130  Biso   1.000  C
  C46      1.0000 0.05390  0.44400  0.05390  Biso   1.000  C
  C47      1.0000 0.02940  0.53530  0.02940  Biso   1.000  C
  C48      1.0000 0.02520  0.40600  0.02520  Biso   1.000  C
  C49      1.0000 0.11130  0.11130  0.39010  Biso   1.000  C
  C50      1.0000 0.05390  0.05390  0.44400  Biso   1.000  C
  C51      1.0000 0.02940  0.02940  0.53530  Biso   1.000  C
  C52      1.0000 0.02520  0.02520  0.40600  Biso   1.000  C
  C53      1.0000 0.39010  0.11130  0.11130  Biso   1.000  C
  C54      1.0000 0.44400  0.05390  0.05390  Biso   1.000  C
  C55      1.0000 0.53530  0.02940  0.02940  Biso   1.000  C
  C56      1.0000 0.40600  0.02520  0.02520  Biso   1.000  C
  C57      1.0000 0.60990  0.88870  0.88870  Biso   1.000  C
  C58      1.0000 0.55600  0.94610  0.94610  Biso   1.000  C
  C59      1.0000 0.46470  0.97060  0.97060  Biso   1.000  C
  C60      1.0000 0.59400  0.97480  0.97480  Biso   1.000  C
  C61      1.0000 0.88870  0.88870  0.60990  Biso   1.000  C
  C62      1.0000 0.94610  0.94610  0.55600  Biso   1.000  C
  C63      1.0000 0.97060  0.97060  0.46470  Biso   1.000  C
  C64      1.0000 0.97480  0.97480  0.59400  Biso   1.000  C
  C65      1.0000 0.88870  0.60990  0.88870  Biso   1.000  C
  C66      1.0000 0.94610  0.55600  0.94610  Biso   1.000  C
  C67      1.0000 0.97060  0.46470  0.97060  Biso   1.000  C
  C68      1.0000 0.97480  0.59400  0.97480  Biso   1.000  C
  C69      1.0000 0.11170  0.38940  0.38940  Biso   1.000  C
  C70      1.0000 0.05990  0.44245  0.44245  Biso   1.000  C
  C71      1.0000 0.38940  0.11170  0.38940  Biso   1.000  C
  C72      1.0000 0.44245  0.05990  0.44245  Biso   1.000  C
  C73      1.0000 0.38940  0.38940  0.11170  Biso   1.000  C
  C74      1.0000 0.44245  0.44245  0.05990  Biso   1.000  C
  C75      1.0000 0.61060  0.88830  0.61060  Biso   1.000  C
  C76      1.0000 0.55755  0.94010  0.55755  Biso   1.000  C
  C77      1.0000 0.88830  0.61060  0.61060  Biso   1.000  C
  C78      1.0000 0.94010  0.55755  0.55755  Biso   1.000  C
  C79      1.0000 0.61060  0.61060  0.88830  Biso   1.000  C
  C80      1.0000 0.55755  0.55755  0.94010  Biso   1.000  C
  C81      1.0000 0.13529  0.42759  0.30119  Biso   1.000  C
  C82      1.0000 0.30119  0.13529  0.42759  Biso   1.000  C
  C83      1.0000 0.42759  0.30119  0.13529  Biso   1.000  C
  C84      1.0000 0.57241  0.86471  0.69881  Biso   1.000  C
  C85      1.0000 0.86471  0.69881  0.57241  Biso   1.000  C
  C86      1.0000 0.69881  0.57241  0.86471  Biso   1.000  C
  C87      1.0000 0.86471  0.57241  0.69881  Biso   1.000  C
  C88      1.0000 0.69881  0.86471  0.57241  Biso   1.000  C
  C89      1.0000 0.57241  0.69881  0.86471  Biso   1.000  C
  C90      1.0000 0.42759  0.13529  0.30119  Biso   1.000  C
  C91      1.0000 0.13529  0.30119  0.42759  Biso   1.000  C
  C92      1.0000 0.30119  0.42759  0.13529  Biso   1.000  C
  C93      1.0000 0.25153  0.25153  0.25153  Biso   1.000  C
  C94      1.0000 0.74847  0.74847  0.74847  Biso   1.000  C
  C95      1.0000 0.13410  0.30220  0.13410  Biso   1.000  C
  C96      1.0000 0.13380  0.42820  0.13380  Biso   1.000  C
  C97      1.0000 0.13410  0.13410  0.30220  Biso   1.000  C
  C98      1.0000 0.13380  0.13380  0.42820  Biso   1.000  C
  C99      1.0000 0.30220  0.13410  0.13410  Biso   1.000  C
  C100     1.0000 0.42820  0.13380  0.13380  Biso   1.000  C
  C101     1.0000 0.69780  0.86590  0.86590  Biso   1.000  C
  C102     1.0000 0.57180  0.86620  0.86620  Biso   1.000  C
  C103     1.0000 0.86590  0.86590  0.69780  Biso   1.000  C
  C104     1.0000 0.86620  0.86620  0.57180  Biso   1.000  C
  C105     1.0000 0.86590  0.69780  0.86590  Biso   1.000  C
  C106     1.0000 0.86620  0.57180  0.86620  Biso   1.000  C
  O1       1.0000 0.58459  0.24410  0.59170  Biso   1.000  O
  O2       1.0000 0.58575  0.41654  0.59170  Biso   1.000  O
  O3       1.0000 0.41046  0.41654  0.59170  Biso   1.000  O
  O4       1.0000 0.58474  0.41611  0.41998  Biso   1.000  O
  O5       1.0000 0.00409  0.83264  0.01168  Biso   1.000  O
  O6       1.0000 0.00525  0.00508  0.01168  Biso   1.000  O
  O7       1.0000 0.17938  0.83264  0.01168  Biso   1.000  O
  O8       1.0000 0.00510  0.83307  0.18340  Biso   1.000  O
  O9       1.0000 0.44503  0.06081  0.75138  Biso   1.000  O
  O10      1.0000 0.74902  0.57654  0.45528  Biso   1.000  O
  O11      1.0000 0.22375  0.27994  0.75138  Biso   1.000  O
  O12      1.0000 0.74773  0.57599  0.23705  Biso   1.000  O
  O13      1.0000 0.22399  0.57654  0.45528  Biso   1.000  O
  O14      1.0000 0.74877  0.27994  0.75138  Biso   1.000  O
  O15      1.0000 0.44547  0.57599  0.23705  Biso   1.000  O
  O16      1.0000 0.74730  0.06081  0.75138  Biso   1.000  O
  O17      1.0000 0.74573  0.27865  0.23705  Biso   1.000  O
  O18      1.0000 0.44851  0.57728  0.75138  Biso   1.000  O
  O19      1.0000 0.74555  0.06007  0.45528  Biso   1.000  O
  O20      1.0000 0.22575  0.57728  0.75138  Biso   1.000  O
  O21      1.0000 0.14133  0.67190  0.85200  Biso   1.000  O
  O22      1.0000 0.84429  0.18911  0.14810  Biso   1.000  O
  O23      1.0000 0.36409  0.67190  0.85200  Biso   1.000  O
  O24      1.0000 0.84411  0.97053  0.36633  Biso   1.000  O
  O25      1.0000 0.36584  0.67264  0.14810  Biso   1.000  O
  O26      1.0000 0.84254  0.18837  0.85200  Biso   1.000  O
  O27      1.0000 0.14437  0.67319  0.36633  Biso   1.000  O
  O28      1.0000 0.84107  0.96924  0.85200  Biso   1.000  O
  O29      1.0000 0.84211  0.67319  0.36633  Biso   1.000  O
  O30      1.0000 0.14480  0.18837  0.85200  Biso   1.000  O
  O31      1.0000 0.84082  0.67264  0.14810  Biso   1.000  O
  O32      1.0000 0.36609  0.96924  0.85200  Biso   1.000  O
  O33      1.0000 0.38140  0.08742  0.76946  Biso   1.000  O
  O34      1.0000 0.76724  0.59454  0.39265  Biso   1.000  O
  O35      1.0000 0.25043  0.21711  0.76946  Biso   1.000  O
  O36      1.0000 0.76647  0.59422  0.26350  Biso   1.000  O
  O37      1.0000 0.25074  0.59454  0.39266  Biso   1.000  O
  O38      1.0000 0.76692  0.21711  0.76946  Biso   1.000  O
  O39      1.0000 0.38182  0.59422  0.26350  Biso   1.000  O
  O40      1.0000 0.76605  0.08742  0.76946  Biso   1.000  O
  O41      1.0000 0.76393  0.21584  0.26350  Biso   1.000  O
  O42      1.0000 0.38482  0.59549  0.76946  Biso   1.000  O
  O43      1.0000 0.76382  0.08647  0.39265  Biso   1.000  O
  O44      1.0000 0.25297  0.59549  0.76946  Biso   1.000  O
  O45      1.0000 0.20502  0.65369  0.83392  Biso   1.000  O
  O46      1.0000 0.82602  0.16271  0.21072  Biso   1.000  O
  O47      1.0000 0.33687  0.65369  0.83392  Biso   1.000  O
  O48      1.0000 0.82591  0.03334  0.33988  Biso   1.000  O
  O49      1.0000 0.33909  0.65464  0.21072  Biso   1.000  O
  O50      1.0000 0.82379  0.16176  0.83392  Biso   1.000  O
  O51      1.0000 0.20802  0.65496  0.33988  Biso   1.000  O
  O52      1.0000 0.82292  0.03207  0.83392  Biso   1.000  O
  O53      1.0000 0.82337  0.65496  0.33988  Biso   1.000  O
  O54      1.0000 0.20844  0.16176  0.83392  Biso   1.000  O
  O55      1.0000 0.82260  0.65464  0.21072  Biso   1.000  O
  O56      1.0000 0.33941  0.03207  0.83392  Biso   1.000  O
  O57      1.0000 0.40152  0.23619  0.68567  Biso   1.000  O
  O58      1.0000 0.34319  0.17901  0.74276  Biso   1.000  O
  O59      1.0000 0.68125  0.51045  0.41187  Biso   1.000  O
  O60      1.0000 0.73957  0.56763  0.35478  Biso   1.000  O
  O61      1.0000 0.40175  0.51045  0.41187  Biso   1.000  O
  O62      1.0000 0.34352  0.56763  0.35478  Biso   1.000  O
  O63      1.0000 0.68102  0.23619  0.68567  Biso   1.000  O
  O64      1.0000 0.73924  0.17901  0.74276  Biso   1.000  O
  O65      1.0000 0.67940  0.23550  0.41187  Biso   1.000  O
  O66      1.0000 0.73695  0.17804  0.35478  Biso   1.000  O
  O67      1.0000 0.40337  0.51114  0.68567  Biso   1.000  O
  O68      1.0000 0.34582  0.56860  0.74276  Biso   1.000  O
  O69      1.0000 0.18647  0.73804  0.91771  Biso   1.000  O
  O70      1.0000 0.24402  0.68058  0.86062  Biso   1.000  O
  O71      1.0000 0.91044  0.01368  0.19151  Biso   1.000  O
  O72      1.0000 0.85289  0.07114  0.24860  Biso   1.000  O
  O73      1.0000 0.18809  0.73873  0.19151  Biso   1.000  O
  O74      1.0000 0.24632  0.68155  0.24860  Biso   1.000  O
  O75      1.0000 0.90882  0.01299  0.91771  Biso   1.000  O
  O76      1.0000 0.85059  0.07017  0.86062  Biso   1.000  O
  O77      1.0000 0.90859  0.73873  0.19151  Biso   1.000  O
  O78      1.0000 0.85027  0.68155  0.24860  Biso   1.000  O
  O79      1.0000 0.18832  0.01299  0.91771  Biso   1.000  O
  O80      1.0000 0.24664  0.07017  0.86062  Biso   1.000  O
  O81      1.0000 0.54138  0.37332  0.54877  Biso   1.000  O
  O82      1.0000 0.04846  0.87586  0.05461  Biso   1.000  O
  O83      1.0000 0.48536  0.19744  0.66368  Biso   1.000  O
  O84      1.0000 0.65914  0.48858  0.49438  Biso   1.000  O
  O85      1.0000 0.36261  0.31900  0.66368  Biso   1.000  O
  O86      1.0000 0.65843  0.48827  0.37333  Biso   1.000  O
  O87      1.0000 0.36275  0.48858  0.49438  Biso   1.000  O
  O88      1.0000 0.65900  0.31900  0.66368  Biso   1.000  O
  O89      1.0000 0.48560  0.48827  0.37333  Biso   1.000  O
  O90      1.0000 0.65818  0.19744  0.66368  Biso   1.000  O
  O91      1.0000 0.65728  0.31827  0.37333  Biso   1.000  O
  O92      1.0000 0.48732  0.48900  0.66368  Biso   1.000  O
  O93      1.0000 0.65718  0.19702  0.49438  Biso   1.000  O
  O94      1.0000 0.36375  0.48900  0.66368  Biso   1.000  O
  O95      1.0000 0.10252  0.76018  0.93970  Biso   1.000  O
  O96      1.0000 0.93266  0.05216  0.10900  Biso   1.000  O
  O97      1.0000 0.22609  0.76018  0.93970  Biso   1.000  O
  O98      1.0000 0.93256  0.93091  0.23005  Biso   1.000  O
  O99      1.0000 0.22709  0.76060  0.10900  Biso   1.000  O
  O100     1.0000 0.93166  0.05174  0.93970  Biso   1.000  O
  O101     1.0000 0.10424  0.76091  0.23005  Biso   1.000  O
  O102     1.0000 0.93084  0.93019  0.93970  Biso   1.000  O
  O103     1.0000 0.93141  0.76091  0.23005  Biso   1.000  O
  O104     1.0000 0.10448  0.05174  0.93970  Biso   1.000  O
  O105     1.0000 0.93070  0.76060  0.10900  Biso   1.000  O
  O106     1.0000 0.22723  0.93019  0.93970  Biso   1.000  O
