data_image0
_cell_length_a       18.3149
_cell_length_b       18.3149
_cell_length_c       18.3149
_cell_angle_alpha    60.3295
_cell_angle_beta     60.3295
_cell_angle_gamma    60.3295

_symmetry_space_group_name_H-M    "P 1"
_symmetry_int_tables_number       1

loop_
  _symmetry_equiv_pos_as_xyz
  'x, y, z'

loop_
  _atom_site_label
  _atom_site_occupancy
  _atom_site_fract_x
  _atom_site_fract_y
  _atom_site_fract_z
  _atom_site_thermal_displace_type
  _atom_site_B_iso_or_equiv
  _atom_site_type_symbol
  Zn1      1.0000 0.20609  0.20609  0.20609  Biso   1.000  Zn
  Zn2      1.0000 0.79391  0.79391  0.79391  Biso   1.000  Zn
  Zn3      1.0000 0.20677  0.37952  0.20677  Biso   1.000  Zn
  Zn4      1.0000 0.20677  0.20677  0.37952  Biso   1.000  Zn
  Zn5      1.0000 0.37952  0.20677  0.20677  Biso   1.000  Zn
  Zn6      1.0000 0.62048  0.79323  0.79323  Biso   1.000  Zn
  Zn7      1.0000 0.79323  0.79323  0.62048  Biso   1.000  Zn
  Zn8      1.0000 0.79323  0.62048  0.79323  Biso   1.000  Zn
  H1       1.0000 0.04260  0.34350  0.56530  Biso   1.000  H
  H2       1.0000 0.56530  0.04260  0.34350  Biso   1.000  H
  H3       1.0000 0.34350  0.56530  0.04260  Biso   1.000  H
  H4       1.0000 0.65650  0.95740  0.43470  Biso   1.000  H
  H5       1.0000 0.95740  0.43470  0.65650  Biso   1.000  H
  H6       1.0000 0.43470  0.65650  0.95740  Biso   1.000  H
  H7       1.0000 0.95740  0.65650  0.43470  Biso   1.000  H
  H8       1.0000 0.43470  0.95740  0.65650  Biso   1.000  H
  H9       1.0000 0.65650  0.43470  0.95740  Biso   1.000  H
  H10      1.0000 0.34350  0.04260  0.56530  Biso   1.000  H
  H11      1.0000 0.04260  0.56530  0.34350  Biso   1.000  H
  H12      1.0000 0.56530  0.34350  0.04260  Biso   1.000  H
  H13      1.0000 0.04880  0.55860  0.04880  Biso   1.000  H
  H14      1.0000 0.04170  0.34450  0.04170  Biso   1.000  H
  H15      1.0000 0.04880  0.04880  0.55860  Biso   1.000  H
  H16      1.0000 0.04170  0.04170  0.34450  Biso   1.000  H
  H17      1.0000 0.55860  0.04880  0.04880  Biso   1.000  H
  H18      1.0000 0.34450  0.04170  0.04170  Biso   1.000  H
  H19      1.0000 0.44140  0.95120  0.95120  Biso   1.000  H
  H20      1.0000 0.65550  0.95830  0.95830  Biso   1.000  H
  H21      1.0000 0.95120  0.95120  0.44140  Biso   1.000  H
  H22      1.0000 0.95830  0.95830  0.65550  Biso   1.000  H
  H23      1.0000 0.95120  0.44140  0.95120  Biso   1.000  H
  H24      1.0000 0.95830  0.65550  0.95830  Biso   1.000  H
  C1       1.0000 0.02770  0.40510  0.53870  Biso   1.000  C
  C2       1.0000 0.53870  0.02770  0.40510  Biso   1.000  C
  C3       1.0000 0.40510  0.53870  0.02770  Biso   1.000  C
  C4       1.0000 0.59490  0.97230  0.46130  Biso   1.000  C
  C5       1.0000 0.97230  0.46130  0.59490  Biso   1.000  C
  C6       1.0000 0.46130  0.59490  0.97230  Biso   1.000  C
  C7       1.0000 0.97230  0.59490  0.46130  Biso   1.000  C
  C8       1.0000 0.46130  0.97230  0.59490  Biso   1.000  C
  C9       1.0000 0.59490  0.46130  0.97230  Biso   1.000  C
  C10      1.0000 0.40510  0.02770  0.53870  Biso   1.000  C
  C11      1.0000 0.02770  0.53870  0.40510  Biso   1.000  C
  C12      1.0000 0.53870  0.40510  0.02770  Biso   1.000  C
  C13      1.0000 0.11130  0.39010  0.11130  Biso   1.000  C
  C14      1.0000 0.05390  0.44400  0.05390  Biso   1.000  C
  C15      1.0000 0.02940  0.53530  0.02940  Biso   1.000  C
  C16      1.0000 0.02520  0.40600  0.02520  Biso   1.000  C
  C17      1.0000 0.11130  0.11130  0.39010  Biso   1.000  C
  C18      1.0000 0.05390  0.05390  0.44400  Biso   1.000  C
  C19      1.0000 0.02940  0.02940  0.53530  Biso   1.000  C
  C20      1.0000 0.02520  0.02520  0.40600  Biso   1.000  C
  C21      1.0000 0.39010  0.11130  0.11130  Biso   1.000  C
  C22      1.0000 0.44400  0.05390  0.05390  Biso   1.000  C
  C23      1.0000 0.53530  0.02940  0.02940  Biso   1.000  C
  C24      1.0000 0.40600  0.02520  0.02520  Biso   1.000  C
  C25      1.0000 0.60990  0.88870  0.88870  Biso   1.000  C
  C26      1.0000 0.55600  0.94610  0.94610  Biso   1.000  C
  C27      1.0000 0.46470  0.97060  0.97060  Biso   1.000  C
  C28      1.0000 0.59400  0.97480  0.97480  Biso   1.000  C
  C29      1.0000 0.88870  0.88870  0.60990  Biso   1.000  C
  C30      1.0000 0.94610  0.94610  0.55600  Biso   1.000  C
  C31      1.0000 0.97060  0.97060  0.46470  Biso   1.000  C
  C32      1.0000 0.97480  0.97480  0.59400  Biso   1.000  C
  C33      1.0000 0.88870  0.60990  0.88870  Biso   1.000  C
  C34      1.0000 0.94610  0.55600  0.94610  Biso   1.000  C
  C35      1.0000 0.97060  0.46470  0.97060  Biso   1.000  C
  C36      1.0000 0.97480  0.59400  0.97480  Biso   1.000  C
  C37      1.0000 0.11170  0.38940  0.38940  Biso   1.000  C
  C38      1.0000 0.05990  0.44245  0.44245  Biso   1.000  C
  C39      1.0000 0.38940  0.11170  0.38940  Biso   1.000  C
  C40      1.0000 0.44245  0.05990  0.44245  Biso   1.000  C
  C41      1.0000 0.38940  0.38940  0.11170  Biso   1.000  C
  C42      1.0000 0.44245  0.44245  0.05990  Biso   1.000  C
  C43      1.0000 0.61060  0.88830  0.61060  Biso   1.000  C
  C44      1.0000 0.55755  0.94010  0.55755  Biso   1.000  C
  C45      1.0000 0.88830  0.61060  0.61060  Biso   1.000  C
  C46      1.0000 0.94010  0.55755  0.55755  Biso   1.000  C
  C47      1.0000 0.61060  0.61060  0.88830  Biso   1.000  C
  C48      1.0000 0.55755  0.55755  0.94010  Biso   1.000  C
  O1       1.0000 0.13529  0.42759  0.30119  Biso   1.000  O
  O2       1.0000 0.30119  0.13529  0.42759  Biso   1.000  O
  O3       1.0000 0.42759  0.30119  0.13529  Biso   1.000  O
  O4       1.0000 0.57241  0.86471  0.69881  Biso   1.000  O
  O5       1.0000 0.86471  0.69881  0.57241  Biso   1.000  O
  O6       1.0000 0.69881  0.57241  0.86471  Biso   1.000  O
  O7       1.0000 0.86471  0.57241  0.69881  Biso   1.000  O
  O8       1.0000 0.69881  0.86471  0.57241  Biso   1.000  O
  O9       1.0000 0.57241  0.69881  0.86471  Biso   1.000  O
  O10      1.0000 0.42759  0.13529  0.30119  Biso   1.000  O
  O11      1.0000 0.13529  0.30119  0.42759  Biso   1.000  O
  O12      1.0000 0.30119  0.42759  0.13529  Biso   1.000  O
  O13      1.0000 0.25153  0.25153  0.25153  Biso   1.000  O
  O14      1.0000 0.74847  0.74847  0.74847  Biso   1.000  O
  O15      1.0000 0.13410  0.30220  0.13410  Biso   1.000  O
  O16      1.0000 0.13380  0.42820  0.13380  Biso   1.000  O
  O17      1.0000 0.13410  0.13410  0.30220  Biso   1.000  O
  O18      1.0000 0.13380  0.13380  0.42820  Biso   1.000  O
  O19      1.0000 0.30220  0.13410  0.13410  Biso   1.000  O
  O20      1.0000 0.42820  0.13380  0.13380  Biso   1.000  O
  O21      1.0000 0.69780  0.86590  0.86590  Biso   1.000  O
  O22      1.0000 0.57180  0.86620  0.86620  Biso   1.000  O
  O23      1.0000 0.86590  0.86590  0.69780  Biso   1.000  O
  O24      1.0000 0.86620  0.86620  0.57180  Biso   1.000  O
  O25      1.0000 0.86590  0.69780  0.86590  Biso   1.000  O
  O26      1.0000 0.86620  0.57180  0.86620  Biso   1.000  O
  Zn9      1.0000 1.00000  1.00000  0.00000  Biso   1.000  Zn
  Zn10     1.0000 0.82764  0.17068  0.00000  Biso   1.000  Zn
  Zn11     1.0000 0.00115  0.17068  0.00000  Biso   1.000  Zn
  Zn12     1.0000 0.00014  0.17025  0.83003  Biso   1.000  Zn
  Zn13     1.0000 0.59322  0.57812  0.40474  Biso   1.000  Zn
  Zn14     1.0000 0.41397  0.76537  0.40474  Biso   1.000  Zn
  Zn15     1.0000 0.41465  0.57609  0.59536  Biso   1.000  Zn
  Zn16     1.0000 0.41944  0.57812  0.40474  Biso   1.000  Zn
  H25      1.0000 0.77108  0.73203  0.24569  Biso   1.000  H
  H26      1.0000 0.55454  0.94646  0.24569  Biso   1.000  H
  H27      1.0000 0.25229  0.41683  0.77610  Biso   1.000  H
  H28      1.0000 0.25102  0.41629  0.56256  Biso   1.000  H
  H29      1.0000 0.77570  0.41801  0.24569  Biso   1.000  H
  H30      1.0000 0.55771  0.41801  0.24569  Biso   1.000  H
  H31      1.0000 0.24785  0.94474  0.56256  Biso   1.000  H
  H32      1.0000 0.24767  0.73085  0.77610  Biso   1.000  H
  H33      1.0000 0.77166  0.41629  0.56256  Biso   1.000  H
  H34      1.0000 0.55494  0.41683  0.77610  Biso   1.000  H
  H35      1.0000 0.25045  0.73203  0.24569  Biso   1.000  H
  H36      1.0000 0.25189  0.94646  0.24569  Biso   1.000  H
  C49      1.0000 0.78717  0.84567  0.18133  Biso   1.000  C
  C50      1.0000 0.74469  0.79307  0.22835  Biso   1.000  C
  C51      1.0000 0.66996  0.96174  0.18133  Biso   1.000  C
  C52      1.0000 0.61636  0.92015  0.22835  Biso   1.000  C
  C53      1.0000 0.18625  0.35224  0.79147  Biso   1.000  C
  C54      1.0000 0.23431  0.39935  0.74994  Biso   1.000  C
  C55      1.0000 0.18556  0.35195  0.67589  Biso   1.000  C
  C56      1.0000 0.23357  0.39904  0.62339  Biso   1.000  C
  C57      1.0000 0.79058  0.35322  0.18133  Biso   1.000  C
  C58      1.0000 0.74878  0.40055  0.22835  Biso   1.000  C
  C59      1.0000 0.67259  0.35322  0.18133  Biso   1.000  C
  C60      1.0000 0.61959  0.40055  0.22835  Biso   1.000  C
  C61      1.0000 0.18293  0.96047  0.67589  Biso   1.000  C
  C62      1.0000 0.23033  0.91863  0.62339  Biso   1.000  C
  C63      1.0000 0.18283  0.84469  0.79147  Biso   1.000  C
  C64      1.0000 0.23023  0.79187  0.74994  Biso   1.000  C
  C65      1.0000 0.78759  0.35195  0.67589  Biso   1.000  C
  C66      1.0000 0.74520  0.39904  0.62339  Biso   1.000  C
  C67      1.0000 0.67028  0.35224  0.79147  Biso   1.000  C
  C68      1.0000 0.61676  0.39935  0.74994  Biso   1.000  C
  C69      1.0000 0.18514  0.84567  0.18133  Biso   1.000  C
  C70      1.0000 0.23306  0.79307  0.22835  Biso   1.000  C
  C71      1.0000 0.18592  0.96174  0.18133  Biso   1.000  C
  C72      1.0000 0.23391  0.92015  0.22835  Biso   1.000  C
  C73      1.0000 0.76199  0.93648  0.14862  Biso   1.000  C
  C74      1.0000 0.65771  0.83424  0.25068  Biso   1.000  C
  C75      1.0000 0.59626  0.77400  0.31083  Biso   1.000  C
  C76      1.0000 0.81883  0.99221  0.09298  Biso   1.000  C
  C77      1.0000 0.15248  0.31933  0.76640  Biso   1.000  C
  C78      1.0000 0.25676  0.42157  0.66433  Biso   1.000  C
  C79      1.0000 0.31820  0.48181  0.60419  Biso   1.000  C
  C80      1.0000 0.09564  0.26360  0.82204  Biso   1.000  C
  C81      1.0000 0.76457  0.32029  0.14862  Biso   1.000  C
  C82      1.0000 0.66167  0.42304  0.25068  Biso   1.000  C
  C83      1.0000 0.60104  0.48358  0.31083  Biso   1.000  C
  C84      1.0000 0.82066  0.26428  0.09298  Biso   1.000  C
  C85      1.0000 0.14990  0.93552  0.76640  Biso   1.000  C
  C86      1.0000 0.25280  0.83277  0.66433  Biso   1.000  C
  C87      1.0000 0.31343  0.77222  0.60419  Biso   1.000  C
  C88      1.0000 0.09381  0.99153  0.82204  Biso   1.000  C
  C89      1.0000 0.76231  0.31933  0.76640  Biso   1.000  C
  C90      1.0000 0.65820  0.42157  0.66433  Biso   1.000  C
  C91      1.0000 0.59686  0.48181  0.60419  Biso   1.000  C
  C92      1.0000 0.81906  0.26360  0.82204  Biso   1.000  C
  C93      1.0000 0.15216  0.93648  0.14862  Biso   1.000  C
  C94      1.0000 0.25626  0.83424  0.25068  Biso   1.000  C
  C95      1.0000 0.31761  0.77400  0.31083  Biso   1.000  C
  C96      1.0000 0.09541  0.99221  0.09298  Biso   1.000  C
  O27      1.0000 0.63502  0.68789  0.33453  Biso   1.000  O
  O28      1.0000 0.89825  0.95576  0.07202  Biso   1.000  O
  O29      1.0000 0.50907  0.81261  0.33453  Biso   1.000  O
  O30      1.0000 0.78224  0.07065  0.07202  Biso   1.000  O
  O31      1.0000 0.34279  0.50571  0.64258  Biso   1.000  O
  O32      1.0000 0.07456  0.24274  0.90020  Biso   1.000  O
  O33      1.0000 0.34205  0.50540  0.51838  Biso   1.000  O
  O34      1.0000 0.07388  0.24246  0.78579  Biso   1.000  O
  O35      1.0000 0.64053  0.50745  0.33453  Biso   1.000  O
  O36      1.0000 0.90019  0.24318  0.07202  Biso   1.000  O
  O37      1.0000 0.51374  0.50745  0.33453  Biso   1.000  O
  O38      1.0000 0.78340  0.24318  0.07202  Biso   1.000  O
  O39      1.0000 0.33738  0.81056  0.51838  Biso   1.000  O
  O40      1.0000 0.07272  0.06993  0.78579  Biso   1.000  O
  O41      1.0000 0.33727  0.68615  0.64258  Biso   1.000  O
  O42      1.0000 0.07263  0.95533  0.90020  Biso   1.000  O
  O43      1.0000 0.63571  0.50540  0.51838  Biso   1.000  O
  O44      1.0000 0.89850  0.24246  0.78579  Biso   1.000  O
  O45      1.0000 0.50965  0.50571  0.64258  Biso   1.000  O
  O46      1.0000 0.78238  0.24274  0.90020  Biso   1.000  O
  O47      1.0000 0.34137  0.68789  0.33453  Biso   1.000  O
  O48      1.0000 0.07364  0.95576  0.07202  Biso   1.000  O
  O49      1.0000 0.34221  0.81261  0.33453  Biso   1.000  O
  O50      1.0000 0.07441  0.07065  0.07202  Biso   1.000  O
  O51      1.0000 0.45106  0.63486  0.46774  Biso   1.000  O
  O52      1.0000 0.95723  0.12790  0.95751  Biso   1.000  O
