data_image0
_cell_length_a       18.3149
_cell_length_b       18.3149
_cell_length_c       18.3149
_cell_angle_alpha    60.3295
_cell_angle_beta     60.3295
_cell_angle_gamma    60.3295

_symmetry_space_group_name_H-M    "P 1"
_symmetry_int_tables_number       1

loop_
  _symmetry_equiv_pos_as_xyz
  'x, y, z'

loop_
  _atom_site_label
  _atom_site_occupancy
  _atom_site_fract_x
  _atom_site_fract_y
  _atom_site_fract_z
  _atom_site_thermal_displace_type
  _atom_site_B_iso_or_equiv
  _atom_site_type_symbol
  Zn1      1.0000 0.20609  0.20609  0.20609  Biso   1.000  Zn
  Zn2      1.0000 0.79391  0.79391  0.79391  Biso   1.000  Zn
  Zn3      1.0000 0.20677  0.37952  0.20677  Biso   1.000  Zn
  Zn4      1.0000 0.20677  0.20677  0.37952  Biso   1.000  Zn
  Zn5      1.0000 0.37952  0.20677  0.20677  Biso   1.000  Zn
  Zn6      1.0000 0.62048  0.79323  0.79323  Biso   1.000  Zn
  Zn7      1.0000 0.79323  0.79323  0.62048  Biso   1.000  Zn
  Zn8      1.0000 0.79323  0.62048  0.79323  Biso   1.000  Zn
  H1       1.0000 0.04260  0.34350  0.56530  Biso   1.000  H
  H2       1.0000 0.56530  0.04260  0.34350  Biso   1.000  H
  H3       1.0000 0.34350  0.56530  0.04260  Biso   1.000  H
  H4       1.0000 0.65650  0.95740  0.43470  Biso   1.000  H
  H5       1.0000 0.95740  0.43470  0.65650  Biso   1.000  H
  H6       1.0000 0.43470  0.65650  0.95740  Biso   1.000  H
  H7       1.0000 0.95740  0.65650  0.43470  Biso   1.000  H
  H8       1.0000 0.43470  0.95740  0.65650  Biso   1.000  H
  H9       1.0000 0.65650  0.43470  0.95740  Biso   1.000  H
  H10      1.0000 0.34350  0.04260  0.56530  Biso   1.000  H
  H11      1.0000 0.04260  0.56530  0.34350  Biso   1.000  H
  H12      1.0000 0.56530  0.34350  0.04260  Biso   1.000  H
  H13      1.0000 0.04880  0.55860  0.04880  Biso   1.000  H
  H14      1.0000 0.04170  0.34450  0.04170  Biso   1.000  H
  H15      1.0000 0.04880  0.04880  0.55860  Biso   1.000  H
  H16      1.0000 0.04170  0.04170  0.34450  Biso   1.000  H
  H17      1.0000 0.55860  0.04880  0.04880  Biso   1.000  H
  H18      1.0000 0.34450  0.04170  0.04170  Biso   1.000  H
  H19      1.0000 0.44140  0.95120  0.95120  Biso   1.000  H
  H20      1.0000 0.65550  0.95830  0.95830  Biso   1.000  H
  H21      1.0000 0.95120  0.95120  0.44140  Biso   1.000  H
  H22      1.0000 0.95830  0.95830  0.65550  Biso   1.000  H
  H23      1.0000 0.95120  0.44140  0.95120  Biso   1.000  H
  H24      1.0000 0.95830  0.65550  0.95830  Biso   1.000  H
  C1       1.0000 0.02770  0.40510  0.53870  Biso   1.000  C
  C2       1.0000 0.53870  0.02770  0.40510  Biso   1.000  C
  C3       1.0000 0.40510  0.53870  0.02770  Biso   1.000  C
  C4       1.0000 0.59490  0.97230  0.46130  Biso   1.000  C
  C5       1.0000 0.97230  0.46130  0.59490  Biso   1.000  C
  C6       1.0000 0.46130  0.59490  0.97230  Biso   1.000  C
  C7       1.0000 0.97230  0.59490  0.46130  Biso   1.000  C
  C8       1.0000 0.46130  0.97230  0.59490  Biso   1.000  C
  C9       1.0000 0.59490  0.46130  0.97230  Biso   1.000  C
  C10      1.0000 0.40510  0.02770  0.53870  Biso   1.000  C
  C11      1.0000 0.02770  0.53870  0.40510  Biso   1.000  C
  C12      1.0000 0.53870  0.40510  0.02770  Biso   1.000  C
  C13      1.0000 0.11130  0.39010  0.11130  Biso   1.000  C
  C14      1.0000 0.05390  0.44400  0.05390  Biso   1.000  C
  C15      1.0000 0.02940  0.53530  0.02940  Biso   1.000  C
  C16      1.0000 0.02520  0.40600  0.02520  Biso   1.000  C
  C17      1.0000 0.11130  0.11130  0.39010  Biso   1.000  C
  C18      1.0000 0.05390  0.05390  0.44400  Biso   1.000  C
  C19      1.0000 0.02940  0.02940  0.53530  Biso   1.000  C
  C20      1.0000 0.02520  0.02520  0.40600  Biso   1.000  C
  C21      1.0000 0.39010  0.11130  0.11130  Biso   1.000  C
  C22      1.0000 0.44400  0.05390  0.05390  Biso   1.000  C
  C23      1.0000 0.53530  0.02940  0.02940  Biso   1.000  C
  C24      1.0000 0.40600  0.02520  0.02520  Biso   1.000  C
  C25      1.0000 0.60990  0.88870  0.88870  Biso   1.000  C
  C26      1.0000 0.55600  0.94610  0.94610  Biso   1.000  C
  C27      1.0000 0.46470  0.97060  0.97060  Biso   1.000  C
  C28      1.0000 0.59400  0.97480  0.97480  Biso   1.000  C
  C29      1.0000 0.88870  0.88870  0.60990  Biso   1.000  C
  C30      1.0000 0.94610  0.94610  0.55600  Biso   1.000  C
  C31      1.0000 0.97060  0.97060  0.46470  Biso   1.000  C
  C32      1.0000 0.97480  0.97480  0.59400  Biso   1.000  C
  C33      1.0000 0.88870  0.60990  0.88870  Biso   1.000  C
  C34      1.0000 0.94610  0.55600  0.94610  Biso   1.000  C
  C35      1.0000 0.97060  0.46470  0.97060  Biso   1.000  C
  C36      1.0000 0.97480  0.59400  0.97480  Biso   1.000  C
  C37      1.0000 0.11170  0.38940  0.38940  Biso   1.000  C
  C38      1.0000 0.05990  0.44245  0.44245  Biso   1.000  C
  C39      1.0000 0.38940  0.11170  0.38940  Biso   1.000  C
  C40      1.0000 0.44245  0.05990  0.44245  Biso   1.000  C
  C41      1.0000 0.38940  0.38940  0.11170  Biso   1.000  C
  C42      1.0000 0.44245  0.44245  0.05990  Biso   1.000  C
  C43      1.0000 0.61060  0.88830  0.61060  Biso   1.000  C
  C44      1.0000 0.55755  0.94010  0.55755  Biso   1.000  C
  C45      1.0000 0.88830  0.61060  0.61060  Biso   1.000  C
  C46      1.0000 0.94010  0.55755  0.55755  Biso   1.000  C
  C47      1.0000 0.61060  0.61060  0.88830  Biso   1.000  C
  C48      1.0000 0.55755  0.55755  0.94010  Biso   1.000  C
  O1       1.0000 0.13529  0.42759  0.30119  Biso   1.000  O
  O2       1.0000 0.30119  0.13529  0.42759  Biso   1.000  O
  O3       1.0000 0.42759  0.30119  0.13529  Biso   1.000  O
  O4       1.0000 0.57241  0.86471  0.69881  Biso   1.000  O
  O5       1.0000 0.86471  0.69881  0.57241  Biso   1.000  O
  O6       1.0000 0.69881  0.57241  0.86471  Biso   1.000  O
  O7       1.0000 0.86471  0.57241  0.69881  Biso   1.000  O
  O8       1.0000 0.69881  0.86471  0.57241  Biso   1.000  O
  O9       1.0000 0.57241  0.69881  0.86471  Biso   1.000  O
  O10      1.0000 0.42759  0.13529  0.30119  Biso   1.000  O
  O11      1.0000 0.13529  0.30119  0.42759  Biso   1.000  O
  O12      1.0000 0.30119  0.42759  0.13529  Biso   1.000  O
  O13      1.0000 0.25153  0.25153  0.25153  Biso   1.000  O
  O14      1.0000 0.74847  0.74847  0.74847  Biso   1.000  O
  O15      1.0000 0.13410  0.30220  0.13410  Biso   1.000  O
  O16      1.0000 0.13380  0.42820  0.13380  Biso   1.000  O
  O17      1.0000 0.13410  0.13410  0.30220  Biso   1.000  O
  O18      1.0000 0.13380  0.13380  0.42820  Biso   1.000  O
  O19      1.0000 0.30220  0.13410  0.13410  Biso   1.000  O
  O20      1.0000 0.42820  0.13380  0.13380  Biso   1.000  O
  O21      1.0000 0.69780  0.86590  0.86590  Biso   1.000  O
  O22      1.0000 0.57180  0.86620  0.86620  Biso   1.000  O
  O23      1.0000 0.86590  0.86590  0.69780  Biso   1.000  O
  O24      1.0000 0.86620  0.86620  0.57180  Biso   1.000  O
  O25      1.0000 0.86590  0.69780  0.86590  Biso   1.000  O
  O26      1.0000 0.86620  0.57180  0.86620  Biso   1.000  O
  Zn9      1.0000 1.00000  1.00000  0.00000  Biso   1.000  Zn
  Zn10     1.0000 0.00102  0.00043  0.17179  Biso   1.000  Zn
  Zn11     1.0000 0.82565  0.00043  0.17179  Biso   1.000  Zn
  Zn12     1.0000 0.99986  0.82793  0.17179  Biso   1.000  Zn
  Zn13     1.0000 0.42351  0.41143  0.75143  Biso   1.000  Zn
  Zn14     1.0000 0.42250  0.41100  0.57964  Biso   1.000  Zn
  Zn15     1.0000 0.42366  0.58351  0.57964  Biso   1.000  Zn
  Zn16     1.0000 0.59786  0.41100  0.57964  Biso   1.000  Zn
  H25      1.0000 0.16894  0.16247  0.80595  Biso   1.000  H
  H26      1.0000 0.16438  0.16053  0.03375  Biso   1.000  H
  H27      1.0000 0.64838  0.86222  0.33157  Biso   1.000  H
  H28      1.0000 0.86533  0.63764  0.33157  Biso   1.000  H
  H29      1.0000 0.16758  0.63689  0.03375  Biso   1.000  H
  H30      1.0000 0.16693  0.86341  0.80595  Biso   1.000  H
  H31      1.0000 0.65039  0.16128  0.33157  Biso   1.000  H
  H32      1.0000 0.86212  0.16128  0.33157  Biso   1.000  H
  H33      1.0000 0.16413  0.86222  0.33157  Biso   1.000  H
  H34      1.0000 0.16934  0.63764  0.33157  Biso   1.000  H
  H35      1.0000 0.64863  0.16053  0.03375  Biso   1.000  H
  H36      1.0000 0.86493  0.16247  0.80595  Biso   1.000  H
  H37      1.0000 0.25457  0.24896  0.94547  Biso   1.000  H
  H38      1.0000 0.25914  0.25090  0.71767  Biso   1.000  H
  H39      1.0000 0.55819  0.77379  0.41985  Biso   1.000  H
  H40      1.0000 0.77513  0.54921  0.41985  Biso   1.000  H
  H41      1.0000 0.77488  0.25090  0.71767  Biso   1.000  H
  H42      1.0000 0.55859  0.24896  0.94547  Biso   1.000  H
  H43      1.0000 0.25417  0.77379  0.41985  Biso   1.000  H
  H44      1.0000 0.25939  0.54921  0.41985  Biso   1.000  H
  H45      1.0000 0.56139  0.25015  0.41985  Biso   1.000  H
  H46      1.0000 0.77312  0.25015  0.41985  Biso   1.000  H
  H47      1.0000 0.25593  0.77454  0.71767  Biso   1.000  H
  H48      1.0000 0.25658  0.54802  0.94547  Biso   1.000  H
  C49      1.0000 0.18737  0.18040  0.83223  Biso   1.000  C
  C50      1.0000 0.18229  0.17824  0.97191  Biso   1.000  C
  C51      1.0000 0.67489  0.80016  0.34936  Biso   1.000  C
  C52      1.0000 0.80248  0.66407  0.34936  Biso   1.000  C
  C53      1.0000 0.18555  0.66312  0.97191  Biso   1.000  C
  C54      1.0000 0.18482  0.80137  0.83223  Biso   1.000  C
  C55      1.0000 0.67744  0.17918  0.34936  Biso   1.000  C
  C56      1.0000 0.79921  0.17918  0.34936  Biso   1.000  C
  C57      1.0000 0.18197  0.80016  0.34936  Biso   1.000  C
  C58      1.0000 0.18778  0.66407  0.34936  Biso   1.000  C
  C59      1.0000 0.67521  0.17824  0.97191  Biso   1.000  C
  C60      1.0000 0.80207  0.18040  0.83223  Biso   1.000  C
  C61      1.0000 0.23614  0.23103  0.91920  Biso   1.000  C
  C62      1.0000 0.24123  0.23319  0.77952  Biso   1.000  C
  C63      1.0000 0.62104  0.74736  0.40207  Biso   1.000  C
  C64      1.0000 0.74862  0.61127  0.40207  Biso   1.000  C
  C65      1.0000 0.74831  0.23319  0.77952  Biso   1.000  C
  C66      1.0000 0.62144  0.23103  0.91920  Biso   1.000  C
  C67      1.0000 0.23573  0.74736  0.40207  Biso   1.000  C
  C68      1.0000 0.24154  0.61127  0.40207  Biso   1.000  C
  C69      1.0000 0.62430  0.23225  0.40207  Biso   1.000  C
  C70      1.0000 0.74607  0.23225  0.40207  Biso   1.000  C
  C71      1.0000 0.23796  0.74831  0.77952  Biso   1.000  C
  C72      1.0000 0.23869  0.61006  0.91920  Biso   1.000  C
  C73      1.0000 0.09638  0.09422  0.99205  Biso   1.000  C
  C74      1.0000 0.15461  0.15131  0.93505  Biso   1.000  C
  C75      1.0000 0.81687  0.82018  0.26564  Biso   1.000  C
  C76      1.0000 0.75864  0.76309  0.32264  Biso   1.000  C
  C77      1.0000 0.09453  0.81949  0.99205  Biso   1.000  C
  C78      1.0000 0.15199  0.76211  0.93505  Biso   1.000  C
  C79      1.0000 0.81872  0.09491  0.26564  Biso   1.000  C
  C80      1.0000 0.76126  0.15228  0.32264  Biso   1.000  C
  C81      1.0000 0.09615  0.82018  0.26564  Biso   1.000  C
  C82      1.0000 0.15428  0.76309  0.32264  Biso   1.000  C
  C83      1.0000 0.81710  0.09422  0.99205  Biso   1.000  C
  C84      1.0000 0.75896  0.15131  0.93505  Biso   1.000  C
  C85      1.0000 0.32713  0.31721  0.75937  Biso   1.000  C
  C86      1.0000 0.26890  0.26012  0.81637  Biso   1.000  C
  C87      1.0000 0.60664  0.59125  0.48579  Biso   1.000  C
  C88      1.0000 0.66488  0.64834  0.42879  Biso   1.000  C
  C89      1.0000 0.60641  0.31721  0.75937  Biso   1.000  C
  C90      1.0000 0.66455  0.26012  0.81637  Biso   1.000  C
  C91      1.0000 0.32736  0.59125  0.48579  Biso   1.000  C
  C92      1.0000 0.26923  0.64834  0.42879  Biso   1.000  C
  C93      1.0000 0.60480  0.31652  0.48579  Biso   1.000  C
  C94      1.0000 0.66226  0.25915  0.42879  Biso   1.000  C
  C95      1.0000 0.32898  0.59194  0.75937  Biso   1.000  C
  C96      1.0000 0.27152  0.64932  0.81637  Biso   1.000  C
  O27      1.0000 0.95662  0.95720  0.12885  Biso   1.000  O
  O28      1.0000 0.46689  0.45423  0.62258  Biso   1.000  O
  O29      1.0000 0.07338  0.07187  0.95405  Biso   1.000  O
  O30      1.0000 0.07410  0.07218  0.07437  Biso   1.000  O
  O31      1.0000 0.77850  0.90278  0.24348  Biso   1.000  O
  O32      1.0000 0.90051  0.78197  0.24348  Biso   1.000  O
  O33      1.0000 0.07214  0.78154  0.07437  Biso   1.000  O
  O34      1.0000 0.07224  0.90205  0.95405  Biso   1.000  O
  O35      1.0000 0.77965  0.07260  0.24348  Biso   1.000  O
  O36      1.0000 0.90246  0.07260  0.24348  Biso   1.000  O
  O37      1.0000 0.07395  0.90278  0.24348  Biso   1.000  O
  O38      1.0000 0.07314  0.78197  0.24348  Biso   1.000  O
  O39      1.0000 0.77865  0.07218  0.07437  Biso   1.000  O
  O40      1.0000 0.90075  0.07187  0.95405  Biso   1.000  O
  O41      1.0000 0.35013  0.33956  0.79737  Biso   1.000  O
  O42      1.0000 0.34942  0.33925  0.67706  Biso   1.000  O
  O43      1.0000 0.52300  0.62946  0.50794  Biso   1.000  O
  O44      1.0000 0.64501  0.50865  0.50794  Biso   1.000  O
  O45      1.0000 0.64487  0.33925  0.67706  Biso   1.000  O
  O46      1.0000 0.52276  0.33956  0.79737  Biso   1.000  O
  O47      1.0000 0.35037  0.62946  0.50794  Biso   1.000  O
  O48      1.0000 0.34956  0.50865  0.50794  Biso   1.000  O
  O49      1.0000 0.52105  0.33883  0.50794  Biso   1.000  O
  O50      1.0000 0.64387  0.33883  0.50794  Biso   1.000  O
  O51      1.0000 0.35137  0.62989  0.67706  Biso   1.000  O
  O52      1.0000 0.35127  0.50938  0.79737  Biso   1.000  O
