data_image0
_cell_length_a       18.3149
_cell_length_b       18.3149
_cell_length_c       18.3149
_cell_angle_alpha    60.3295
_cell_angle_beta     60.3295
_cell_angle_gamma    60.3295

_symmetry_space_group_name_H-M    "P 1"
_symmetry_int_tables_number       1

loop_
  _symmetry_equiv_pos_as_xyz
  'x, y, z'

loop_
  _atom_site_label
  _atom_site_occupancy
  _atom_site_fract_x
  _atom_site_fract_y
  _atom_site_fract_z
  _atom_site_thermal_displace_type
  _atom_site_B_iso_or_equiv
  _atom_site_type_symbol
  Zn1      1.0000 0.20609  0.20609  0.20609  Biso   1.000  Zn
  Zn2      1.0000 0.79391  0.79391  0.79391  Biso   1.000  Zn
  Zn3      1.0000 0.20677  0.37952  0.20677  Biso   1.000  Zn
  Zn4      1.0000 0.20677  0.20677  0.37952  Biso   1.000  Zn
  Zn5      1.0000 0.37952  0.20677  0.20677  Biso   1.000  Zn
  Zn6      1.0000 0.62048  0.79323  0.79323  Biso   1.000  Zn
  Zn7      1.0000 0.79323  0.79323  0.62048  Biso   1.000  Zn
  Zn8      1.0000 0.79323  0.62048  0.79323  Biso   1.000  Zn
  H1       1.0000 0.04260  0.34350  0.56530  Biso   1.000  H
  H2       1.0000 0.56530  0.04260  0.34350  Biso   1.000  H
  H3       1.0000 0.34350  0.56530  0.04260  Biso   1.000  H
  H4       1.0000 0.65650  0.95740  0.43470  Biso   1.000  H
  H5       1.0000 0.95740  0.43470  0.65650  Biso   1.000  H
  H6       1.0000 0.43470  0.65650  0.95740  Biso   1.000  H
  H7       1.0000 0.95740  0.65650  0.43470  Biso   1.000  H
  H8       1.0000 0.43470  0.95740  0.65650  Biso   1.000  H
  H9       1.0000 0.65650  0.43470  0.95740  Biso   1.000  H
  H10      1.0000 0.34350  0.04260  0.56530  Biso   1.000  H
  H11      1.0000 0.04260  0.56530  0.34350  Biso   1.000  H
  H12      1.0000 0.56530  0.34350  0.04260  Biso   1.000  H
  H13      1.0000 0.04880  0.55860  0.04880  Biso   1.000  H
  H14      1.0000 0.04170  0.34450  0.04170  Biso   1.000  H
  H15      1.0000 0.04880  0.04880  0.55860  Biso   1.000  H
  H16      1.0000 0.04170  0.04170  0.34450  Biso   1.000  H
  H17      1.0000 0.55860  0.04880  0.04880  Biso   1.000  H
  H18      1.0000 0.34450  0.04170  0.04170  Biso   1.000  H
  H19      1.0000 0.44140  0.95120  0.95120  Biso   1.000  H
  H20      1.0000 0.65550  0.95830  0.95830  Biso   1.000  H
  H21      1.0000 0.95120  0.95120  0.44140  Biso   1.000  H
  H22      1.0000 0.95830  0.95830  0.65550  Biso   1.000  H
  H23      1.0000 0.95120  0.44140  0.95120  Biso   1.000  H
  H24      1.0000 0.95830  0.65550  0.95830  Biso   1.000  H
  C1       1.0000 0.02770  0.40510  0.53870  Biso   1.000  C
  C2       1.0000 0.53870  0.02770  0.40510  Biso   1.000  C
  C3       1.0000 0.40510  0.53870  0.02770  Biso   1.000  C
  C4       1.0000 0.59490  0.97230  0.46130  Biso   1.000  C
  C5       1.0000 0.97230  0.46130  0.59490  Biso   1.000  C
  C6       1.0000 0.46130  0.59490  0.97230  Biso   1.000  C
  C7       1.0000 0.97230  0.59490  0.46130  Biso   1.000  C
  C8       1.0000 0.46130  0.97230  0.59490  Biso   1.000  C
  C9       1.0000 0.59490  0.46130  0.97230  Biso   1.000  C
  C10      1.0000 0.40510  0.02770  0.53870  Biso   1.000  C
  C11      1.0000 0.02770  0.53870  0.40510  Biso   1.000  C
  C12      1.0000 0.53870  0.40510  0.02770  Biso   1.000  C
  C13      1.0000 0.11130  0.39010  0.11130  Biso   1.000  C
  C14      1.0000 0.05390  0.44400  0.05390  Biso   1.000  C
  C15      1.0000 0.02940  0.53530  0.02940  Biso   1.000  C
  C16      1.0000 0.02520  0.40600  0.02520  Biso   1.000  C
  C17      1.0000 0.11130  0.11130  0.39010  Biso   1.000  C
  C18      1.0000 0.05390  0.05390  0.44400  Biso   1.000  C
  C19      1.0000 0.02940  0.02940  0.53530  Biso   1.000  C
  C20      1.0000 0.02520  0.02520  0.40600  Biso   1.000  C
  C21      1.0000 0.39010  0.11130  0.11130  Biso   1.000  C
  C22      1.0000 0.44400  0.05390  0.05390  Biso   1.000  C
  C23      1.0000 0.53530  0.02940  0.02940  Biso   1.000  C
  C24      1.0000 0.40600  0.02520  0.02520  Biso   1.000  C
  C25      1.0000 0.60990  0.88870  0.88870  Biso   1.000  C
  C26      1.0000 0.55600  0.94610  0.94610  Biso   1.000  C
  C27      1.0000 0.46470  0.97060  0.97060  Biso   1.000  C
  C28      1.0000 0.59400  0.97480  0.97480  Biso   1.000  C
  C29      1.0000 0.88870  0.88870  0.60990  Biso   1.000  C
  C30      1.0000 0.94610  0.94610  0.55600  Biso   1.000  C
  C31      1.0000 0.97060  0.97060  0.46470  Biso   1.000  C
  C32      1.0000 0.97480  0.97480  0.59400  Biso   1.000  C
  C33      1.0000 0.88870  0.60990  0.88870  Biso   1.000  C
  C34      1.0000 0.94610  0.55600  0.94610  Biso   1.000  C
  C35      1.0000 0.97060  0.46470  0.97060  Biso   1.000  C
  C36      1.0000 0.97480  0.59400  0.97480  Biso   1.000  C
  C37      1.0000 0.11170  0.38940  0.38940  Biso   1.000  C
  C38      1.0000 0.05990  0.44245  0.44245  Biso   1.000  C
  C39      1.0000 0.38940  0.11170  0.38940  Biso   1.000  C
  C40      1.0000 0.44245  0.05990  0.44245  Biso   1.000  C
  C41      1.0000 0.38940  0.38940  0.11170  Biso   1.000  C
  C42      1.0000 0.44245  0.44245  0.05990  Biso   1.000  C
  C43      1.0000 0.61060  0.88830  0.61060  Biso   1.000  C
  C44      1.0000 0.55755  0.94010  0.55755  Biso   1.000  C
  C45      1.0000 0.88830  0.61060  0.61060  Biso   1.000  C
  C46      1.0000 0.94010  0.55755  0.55755  Biso   1.000  C
  C47      1.0000 0.61060  0.61060  0.88830  Biso   1.000  C
  C48      1.0000 0.55755  0.55755  0.94010  Biso   1.000  C
  O1       1.0000 0.13529  0.42759  0.30119  Biso   1.000  O
  O2       1.0000 0.30119  0.13529  0.42759  Biso   1.000  O
  O3       1.0000 0.42759  0.30119  0.13529  Biso   1.000  O
  O4       1.0000 0.57241  0.86471  0.69881  Biso   1.000  O
  O5       1.0000 0.86471  0.69881  0.57241  Biso   1.000  O
  O6       1.0000 0.69881  0.57241  0.86471  Biso   1.000  O
  O7       1.0000 0.86471  0.57241  0.69881  Biso   1.000  O
  O8       1.0000 0.69881  0.86471  0.57241  Biso   1.000  O
  O9       1.0000 0.57241  0.69881  0.86471  Biso   1.000  O
  O10      1.0000 0.42759  0.13529  0.30119  Biso   1.000  O
  O11      1.0000 0.13529  0.30119  0.42759  Biso   1.000  O
  O12      1.0000 0.30119  0.42759  0.13529  Biso   1.000  O
  O13      1.0000 0.25153  0.25153  0.25153  Biso   1.000  O
  O14      1.0000 0.74847  0.74847  0.74847  Biso   1.000  O
  O15      1.0000 0.13410  0.30220  0.13410  Biso   1.000  O
  O16      1.0000 0.13380  0.42820  0.13380  Biso   1.000  O
  O17      1.0000 0.13410  0.13410  0.30220  Biso   1.000  O
  O18      1.0000 0.13380  0.13380  0.42820  Biso   1.000  O
  O19      1.0000 0.30220  0.13410  0.13410  Biso   1.000  O
  O20      1.0000 0.42820  0.13380  0.13380  Biso   1.000  O
  O21      1.0000 0.69780  0.86590  0.86590  Biso   1.000  O
  O22      1.0000 0.57180  0.86620  0.86620  Biso   1.000  O
  O23      1.0000 0.86590  0.86590  0.69780  Biso   1.000  O
  O24      1.0000 0.86620  0.86620  0.57180  Biso   1.000  O
  O25      1.0000 0.86590  0.69780  0.86590  Biso   1.000  O
  O26      1.0000 0.86620  0.57180  0.86620  Biso   1.000  O
  Zn9      1.0000 0.59805  0.07597  0.72374  Biso   1.000  Zn
  Zn10     1.0000 0.59922  0.24940  0.72374  Biso   1.000  Zn
  Zn11     1.0000 0.42291  0.24940  0.72374  Biso   1.000  Zn
  Zn12     1.0000 0.59820  0.24897  0.55103  Biso   1.000  Zn
  Zn13     1.0000 0.02008  0.66401  0.14223  Biso   1.000  Zn
  Zn14     1.0000 0.02125  0.83744  0.14223  Biso   1.000  Zn
  Zn15     1.0000 0.19638  0.66401  0.14223  Biso   1.000  Zn
  Zn16     1.0000 0.02110  0.66444  0.31494  Biso   1.000  Zn
  H25      1.0000 0.46541  0.89249  0.88011  Biso   1.000  H
  H26      1.0000 0.75913  0.40610  0.59411  Biso   1.000  H
  H27      1.0000 0.23604  0.11962  0.88011  Biso   1.000  H
  H28      1.0000 0.75779  0.40553  0.36792  Biso   1.000  H
  H29      1.0000 0.23628  0.40610  0.59411  Biso   1.000  H
  H30      1.0000 0.75889  0.11962  0.88011  Biso   1.000  H
  H31      1.0000 0.46584  0.40553  0.36792  Biso   1.000  H
  H32      1.0000 0.75736  0.89249  0.88011  Biso   1.000  H
  H33      1.0000 0.75586  0.11834  0.36792  Biso   1.000  H
  H34      1.0000 0.46887  0.40682  0.88011  Biso   1.000  H
  H35      1.0000 0.75567  0.89178  0.59411  Biso   1.000  H
  H36      1.0000 0.23798  0.40682  0.88011  Biso   1.000  H
  H37      1.0000 0.15043  0.50659  0.98586  Biso   1.000  H
  H38      1.0000 0.86363  0.02164  0.27186  Biso   1.000  H
  H39      1.0000 0.38132  0.50659  0.98586  Biso   1.000  H
  H40      1.0000 0.86344  0.79507  0.49805  Biso   1.000  H
  H41      1.0000 0.38301  0.50731  0.27186  Biso   1.000  H
  H42      1.0000 0.86193  0.02092  0.98586  Biso   1.000  H
  H43      1.0000 0.15346  0.50788  0.49805  Biso   1.000  H
  H44      1.0000 0.86041  0.79379  0.98586  Biso   1.000  H
  H45      1.0000 0.86150  0.50788  0.49805  Biso   1.000  H
  H46      1.0000 0.15389  0.02092  0.98586  Biso   1.000  H
  H47      1.0000 0.86017  0.50731  0.27186  Biso   1.000  H
  H48      1.0000 0.38325  0.79379  0.98586  Biso   1.000  H
  C49      1.0000 0.39424  0.91890  0.90200  Biso   1.000  C
  C50      1.0000 0.78121  0.42790  0.52410  Biso   1.000  C
  C51      1.0000 0.26249  0.04937  0.90200  Biso   1.000  C
  C52      1.0000 0.78044  0.42758  0.39417  Biso   1.000  C
  C53      1.0000 0.26281  0.42790  0.52410  Biso   1.000  C
  C54      1.0000 0.78089  0.04937  0.90200  Biso   1.000  C
  C55      1.0000 0.39467  0.42758  0.39417  Biso   1.000  C
  C56      1.0000 0.78001  0.91890  0.90200  Biso   1.000  C
  C57      1.0000 0.77789  0.04810  0.39417  Biso   1.000  C
  C58      1.0000 0.39768  0.42885  0.90200  Biso   1.000  C
  C59      1.0000 0.77778  0.91795  0.52410  Biso   1.000  C
  C60      1.0000 0.26504  0.42885  0.90200  Biso   1.000  C
  C61      1.0000 0.22162  0.48456  0.96397  Biso   1.000  C
  C62      1.0000 0.84152  0.99546  0.34188  Biso   1.000  C
  C63      1.0000 0.35426  0.48456  0.96397  Biso   1.000  C
  C64      1.0000 0.84141  0.86532  0.47181  Biso   1.000  C
  C65      1.0000 0.35649  0.48551  0.34188  Biso   1.000  C
  C66      1.0000 0.83929  0.99451  0.96397  Biso   1.000  C
  C67      1.0000 0.22463  0.48584  0.47181  Biso   1.000  C
  C68      1.0000 0.83841  0.86404  0.96397  Biso   1.000  C
  C69      1.0000 0.83886  0.48584  0.47181  Biso   1.000  C
  C70      1.0000 0.22505  0.99451  0.96397  Biso   1.000  C
  C71      1.0000 0.83809  0.48551  0.34188  Biso   1.000  C
  C72      1.0000 0.35681  0.86404  0.96397  Biso   1.000  C
  C73      1.0000 0.41346  0.06756  0.81871  Biso   1.000  C
  C74      1.0000 0.35659  0.01181  0.87437  Biso   1.000  C
  C75      1.0000 0.69574  0.34432  0.54242  Biso   1.000  C
  C76      1.0000 0.75260  0.40006  0.48676  Biso   1.000  C
  C77      1.0000 0.41369  0.34432  0.54242  Biso   1.000  C
  C78      1.0000 0.35692  0.40006  0.48676  Biso   1.000  C
  C79      1.0000 0.69550  0.06756  0.81871  Biso   1.000  C
  C80      1.0000 0.75227  0.01181  0.87437  Biso   1.000  C
  C81      1.0000 0.69387  0.06687  0.54242  Biso   1.000  C
  C82      1.0000 0.74998  0.01084  0.48676  Biso   1.000  C
  C83      1.0000 0.41532  0.34501  0.81871  Biso   1.000  C
  C84      1.0000 0.35921  0.40104  0.87437  Biso   1.000  C
  C85      1.0000 0.20398  0.56840  0.04726  Biso   1.000  C
  C86      1.0000 0.26008  0.51238  0.99160  Biso   1.000  C
  C87      1.0000 0.92543  0.84655  0.32356  Biso   1.000  C
  C88      1.0000 0.86932  0.90257  0.37921  Biso   1.000  C
  C89      1.0000 0.20561  0.56910  0.32356  Biso   1.000  C
  C90      1.0000 0.26238  0.51335  0.37921  Biso   1.000  C
  C91      1.0000 0.92380  0.84585  0.04726  Biso   1.000  C
  C92      1.0000 0.86703  0.90160  0.99160  Biso   1.000  C
  C93      1.0000 0.92356  0.56910  0.32356  Biso   1.000  C
  C94      1.0000 0.86670  0.51335  0.37921  Biso   1.000  C
  C95      1.0000 0.20584  0.84585  0.04726  Biso   1.000  C
  C96      1.0000 0.26270  0.90160  0.99160  Biso   1.000  C
  O27      1.0000 0.55460  0.20594  0.68057  Biso   1.000  O
  O28      1.0000 0.06470  0.70748  0.18541  Biso   1.000  O
  O29      1.0000 0.49838  0.02892  0.79614  Biso   1.000  O
  O30      1.0000 0.67303  0.32185  0.62600  Biso   1.000  O
  O31      1.0000 0.37466  0.15143  0.79614  Biso   1.000  O
  O32      1.0000 0.67231  0.32155  0.50399  Biso   1.000  O
  O33      1.0000 0.37481  0.32185  0.62600  Biso   1.000  O
  O34      1.0000 0.67288  0.15143  0.79614  Biso   1.000  O
  O35      1.0000 0.49863  0.32155  0.50399  Biso   1.000  O
  O36      1.0000 0.67206  0.02892  0.79614  Biso   1.000  O
  O37      1.0000 0.67116  0.15070  0.50399  Biso   1.000  O
  O38      1.0000 0.50036  0.32228  0.79614  Biso   1.000  O
  O39      1.0000 0.67105  0.02849  0.62600  Biso   1.000  O
  O40      1.0000 0.37581  0.32228  0.79614  Biso   1.000  O
  O41      1.0000 0.11894  0.59113  0.06984  Biso   1.000  O
  O42      1.0000 0.94824  0.88492  0.23997  Biso   1.000  O
  O43      1.0000 0.24349  0.59113  0.06984  Biso   1.000  O
  O44      1.0000 0.94814  0.76271  0.36198  Biso   1.000  O
  O45      1.0000 0.24449  0.59156  0.23997  Biso   1.000  O
  O46      1.0000 0.94724  0.88449  0.06984  Biso   1.000  O
  O47      1.0000 0.12067  0.59187  0.36198  Biso   1.000  O
  O48      1.0000 0.94641  0.76198  0.06984  Biso   1.000  O
  O49      1.0000 0.94699  0.59187  0.36198  Biso   1.000  O
  O50      1.0000 0.12091  0.88449  0.06984  Biso   1.000  O
  O51      1.0000 0.94627  0.59156  0.23997  Biso   1.000  O
  O52      1.0000 0.24464  0.76198  0.06984  Biso   1.000  O
