data_image0
_cell_length_a       18.3149
_cell_length_b       18.3149
_cell_length_c       18.3149
_cell_angle_alpha    60.3295
_cell_angle_beta     60.3295
_cell_angle_gamma    60.3295

_symmetry_space_group_name_H-M    "P 1"
_symmetry_int_tables_number       1

loop_
  _symmetry_equiv_pos_as_xyz
  'x, y, z'

loop_
  _atom_site_label
  _atom_site_occupancy
  _atom_site_fract_x
  _atom_site_fract_y
  _atom_site_fract_z
  _atom_site_thermal_displace_type
  _atom_site_B_iso_or_equiv
  _atom_site_type_symbol
  Zn1      1.0000 0.20609  0.20609  0.20609  Biso   1.000  Zn
  Zn2      1.0000 0.79391  0.79391  0.79391  Biso   1.000  Zn
  Zn3      1.0000 0.20677  0.37952  0.20677  Biso   1.000  Zn
  Zn4      1.0000 0.20677  0.20677  0.37952  Biso   1.000  Zn
  Zn5      1.0000 0.37952  0.20677  0.20677  Biso   1.000  Zn
  Zn6      1.0000 0.62048  0.79323  0.79323  Biso   1.000  Zn
  Zn7      1.0000 0.79323  0.79323  0.62048  Biso   1.000  Zn
  Zn8      1.0000 0.79323  0.62048  0.79323  Biso   1.000  Zn
  H1       1.0000 0.04260  0.34350  0.56530  Biso   1.000  H
  H2       1.0000 0.56530  0.04260  0.34350  Biso   1.000  H
  H3       1.0000 0.34350  0.56530  0.04260  Biso   1.000  H
  H4       1.0000 0.65650  0.95740  0.43470  Biso   1.000  H
  H5       1.0000 0.95740  0.43470  0.65650  Biso   1.000  H
  H6       1.0000 0.43470  0.65650  0.95740  Biso   1.000  H
  H7       1.0000 0.95740  0.65650  0.43470  Biso   1.000  H
  H8       1.0000 0.43470  0.95740  0.65650  Biso   1.000  H
  H9       1.0000 0.65650  0.43470  0.95740  Biso   1.000  H
  H10      1.0000 0.34350  0.04260  0.56530  Biso   1.000  H
  H11      1.0000 0.04260  0.56530  0.34350  Biso   1.000  H
  H12      1.0000 0.56530  0.34350  0.04260  Biso   1.000  H
  H13      1.0000 0.04880  0.55860  0.04880  Biso   1.000  H
  H14      1.0000 0.04170  0.34450  0.04170  Biso   1.000  H
  H15      1.0000 0.04880  0.04880  0.55860  Biso   1.000  H
  H16      1.0000 0.04170  0.04170  0.34450  Biso   1.000  H
  H17      1.0000 0.55860  0.04880  0.04880  Biso   1.000  H
  H18      1.0000 0.34450  0.04170  0.04170  Biso   1.000  H
  H19      1.0000 0.44140  0.95120  0.95120  Biso   1.000  H
  H20      1.0000 0.65550  0.95830  0.95830  Biso   1.000  H
  H21      1.0000 0.95120  0.95120  0.44140  Biso   1.000  H
  H22      1.0000 0.95830  0.95830  0.65550  Biso   1.000  H
  H23      1.0000 0.95120  0.44140  0.95120  Biso   1.000  H
  H24      1.0000 0.95830  0.65550  0.95830  Biso   1.000  H
  C1       1.0000 0.02770  0.40510  0.53870  Biso   1.000  C
  C2       1.0000 0.53870  0.02770  0.40510  Biso   1.000  C
  C3       1.0000 0.40510  0.53870  0.02770  Biso   1.000  C
  C4       1.0000 0.59490  0.97230  0.46130  Biso   1.000  C
  C5       1.0000 0.97230  0.46130  0.59490  Biso   1.000  C
  C6       1.0000 0.46130  0.59490  0.97230  Biso   1.000  C
  C7       1.0000 0.97230  0.59490  0.46130  Biso   1.000  C
  C8       1.0000 0.46130  0.97230  0.59490  Biso   1.000  C
  C9       1.0000 0.59490  0.46130  0.97230  Biso   1.000  C
  C10      1.0000 0.40510  0.02770  0.53870  Biso   1.000  C
  C11      1.0000 0.02770  0.53870  0.40510  Biso   1.000  C
  C12      1.0000 0.53870  0.40510  0.02770  Biso   1.000  C
  C13      1.0000 0.11130  0.39010  0.11130  Biso   1.000  C
  C14      1.0000 0.05390  0.44400  0.05390  Biso   1.000  C
  C15      1.0000 0.02940  0.53530  0.02940  Biso   1.000  C
  C16      1.0000 0.02520  0.40600  0.02520  Biso   1.000  C
  C17      1.0000 0.11130  0.11130  0.39010  Biso   1.000  C
  C18      1.0000 0.05390  0.05390  0.44400  Biso   1.000  C
  C19      1.0000 0.02940  0.02940  0.53530  Biso   1.000  C
  C20      1.0000 0.02520  0.02520  0.40600  Biso   1.000  C
  C21      1.0000 0.39010  0.11130  0.11130  Biso   1.000  C
  C22      1.0000 0.44400  0.05390  0.05390  Biso   1.000  C
  C23      1.0000 0.53530  0.02940  0.02940  Biso   1.000  C
  C24      1.0000 0.40600  0.02520  0.02520  Biso   1.000  C
  C25      1.0000 0.60990  0.88870  0.88870  Biso   1.000  C
  C26      1.0000 0.55600  0.94610  0.94610  Biso   1.000  C
  C27      1.0000 0.46470  0.97060  0.97060  Biso   1.000  C
  C28      1.0000 0.59400  0.97480  0.97480  Biso   1.000  C
  C29      1.0000 0.88870  0.88870  0.60990  Biso   1.000  C
  C30      1.0000 0.94610  0.94610  0.55600  Biso   1.000  C
  C31      1.0000 0.97060  0.97060  0.46470  Biso   1.000  C
  C32      1.0000 0.97480  0.97480  0.59400  Biso   1.000  C
  C33      1.0000 0.88870  0.60990  0.88870  Biso   1.000  C
  C34      1.0000 0.94610  0.55600  0.94610  Biso   1.000  C
  C35      1.0000 0.97060  0.46470  0.97060  Biso   1.000  C
  C36      1.0000 0.97480  0.59400  0.97480  Biso   1.000  C
  C37      1.0000 0.11170  0.38940  0.38940  Biso   1.000  C
  C38      1.0000 0.05990  0.44245  0.44245  Biso   1.000  C
  C39      1.0000 0.38940  0.11170  0.38940  Biso   1.000  C
  C40      1.0000 0.44245  0.05990  0.44245  Biso   1.000  C
  C41      1.0000 0.38940  0.38940  0.11170  Biso   1.000  C
  C42      1.0000 0.44245  0.44245  0.05990  Biso   1.000  C
  C43      1.0000 0.61060  0.88830  0.61060  Biso   1.000  C
  C44      1.0000 0.55755  0.94010  0.55755  Biso   1.000  C
  C45      1.0000 0.88830  0.61060  0.61060  Biso   1.000  C
  C46      1.0000 0.94010  0.55755  0.55755  Biso   1.000  C
  C47      1.0000 0.61060  0.61060  0.88830  Biso   1.000  C
  C48      1.0000 0.55755  0.55755  0.94010  Biso   1.000  C
  O1       1.0000 0.13529  0.42759  0.30119  Biso   1.000  O
  O2       1.0000 0.30119  0.13529  0.42759  Biso   1.000  O
  O3       1.0000 0.42759  0.30119  0.13529  Biso   1.000  O
  O4       1.0000 0.57241  0.86471  0.69881  Biso   1.000  O
  O5       1.0000 0.86471  0.69881  0.57241  Biso   1.000  O
  O6       1.0000 0.69881  0.57241  0.86471  Biso   1.000  O
  O7       1.0000 0.86471  0.57241  0.69881  Biso   1.000  O
  O8       1.0000 0.69881  0.86471  0.57241  Biso   1.000  O
  O9       1.0000 0.57241  0.69881  0.86471  Biso   1.000  O
  O10      1.0000 0.42759  0.13529  0.30119  Biso   1.000  O
  O11      1.0000 0.13529  0.30119  0.42759  Biso   1.000  O
  O12      1.0000 0.30119  0.42759  0.13529  Biso   1.000  O
  O13      1.0000 0.25153  0.25153  0.25153  Biso   1.000  O
  O14      1.0000 0.74847  0.74847  0.74847  Biso   1.000  O
  O15      1.0000 0.13410  0.30220  0.13410  Biso   1.000  O
  O16      1.0000 0.13380  0.42820  0.13380  Biso   1.000  O
  O17      1.0000 0.13410  0.13410  0.30220  Biso   1.000  O
  O18      1.0000 0.13380  0.13380  0.42820  Biso   1.000  O
  O19      1.0000 0.30220  0.13410  0.13410  Biso   1.000  O
  O20      1.0000 0.42820  0.13380  0.13380  Biso   1.000  O
  O21      1.0000 0.69780  0.86590  0.86590  Biso   1.000  O
  O22      1.0000 0.57180  0.86620  0.86620  Biso   1.000  O
  O23      1.0000 0.86590  0.86590  0.69780  Biso   1.000  O
  O24      1.0000 0.86620  0.86620  0.57180  Biso   1.000  O
  O25      1.0000 0.86590  0.69780  0.86590  Biso   1.000  O
  O26      1.0000 0.86620  0.57180  0.86620  Biso   1.000  O
  Zn9      1.0000 0.58525  0.24339  0.59112  Biso   1.000  Zn
  Zn10     1.0000 0.58641  0.41589  0.59112  Biso   1.000  Zn
  Zn11     1.0000 0.41105  0.41589  0.59112  Biso   1.000  Zn
  Zn12     1.0000 0.58539  0.41546  0.41933  Biso   1.000  Zn
  Zn13     1.0000 0.00658  0.83135  0.01045  Biso   1.000  Zn
  Zn14     1.0000 0.00774  0.00385  0.01045  Biso   1.000  Zn
  Zn15     1.0000 0.18193  0.83135  0.01045  Biso   1.000  Zn
  Zn16     1.0000 0.00759  0.83178  0.18224  Biso   1.000  Zn
  H25      1.0000 0.44586  0.05966  0.75093  Biso   1.000  H
  H26      1.0000 0.74982  0.57602  0.45486  Biso   1.000  H
  H27      1.0000 0.22389  0.27946  0.75093  Biso   1.000  H
  H28      1.0000 0.74852  0.57547  0.23597  Biso   1.000  H
  H29      1.0000 0.22414  0.57602  0.45486  Biso   1.000  H
  H30      1.0000 0.74957  0.27946  0.75093  Biso   1.000  H
  H31      1.0000 0.44629  0.57547  0.23597  Biso   1.000  H
  H32      1.0000 0.74809  0.05966  0.75093  Biso   1.000  H
  H33      1.0000 0.74652  0.27817  0.23597  Biso   1.000  H
  H34      1.0000 0.44934  0.57677  0.75093  Biso   1.000  H
  H35      1.0000 0.74634  0.05892  0.45486  Biso   1.000  H
  H36      1.0000 0.22589  0.57677  0.75093  Biso   1.000  H
  H37      1.0000 0.14365  0.67047  0.85064  Biso   1.000  H
  H38      1.0000 0.84664  0.18832  0.14671  Biso   1.000  H
  H39      1.0000 0.36709  0.67047  0.85064  Biso   1.000  H
  H40      1.0000 0.84646  0.96907  0.36560  Biso   1.000  H
  H41      1.0000 0.36884  0.67121  0.14671  Biso   1.000  H
  H42      1.0000 0.84489  0.18757  0.85064  Biso   1.000  H
  H43      1.0000 0.14669  0.67176  0.36560  Biso   1.000  H
  H44      1.0000 0.84341  0.96777  0.85064  Biso   1.000  H
  H45      1.0000 0.84446  0.67176  0.36560  Biso   1.000  H
  H46      1.0000 0.14713  0.18757  0.85064  Biso   1.000  H
  H47      1.0000 0.84316  0.67121  0.14671  Biso   1.000  H
  H48      1.0000 0.36909  0.96777  0.85064  Biso   1.000  H
  C49      1.0000 0.38219  0.08615  0.76909  Biso   1.000  C
  C50      1.0000 0.76811  0.59410  0.39221  Biso   1.000  C
  C51      1.0000 0.25046  0.21660  0.76909  Biso   1.000  C
  C52      1.0000 0.76734  0.59377  0.26230  Biso   1.000  C
  C53      1.0000 0.25077  0.59410  0.39221  Biso   1.000  C
  C54      1.0000 0.76779  0.21660  0.76909  Biso   1.000  C
  C55      1.0000 0.38262  0.59377  0.26230  Biso   1.000  C
  C56      1.0000 0.76691  0.08615  0.76909  Biso   1.000  C
  C57      1.0000 0.76479  0.21533  0.26230  Biso   1.000  C
  C58      1.0000 0.38561  0.59505  0.76909  Biso   1.000  C
  C59      1.0000 0.76468  0.08520  0.39221  Biso   1.000  C
  C60      1.0000 0.25300  0.59505  0.76909  Biso   1.000  C
  C61      1.0000 0.20737  0.65219  0.83248  Biso   1.000  C
  C62      1.0000 0.82830  0.16203  0.20936  Biso   1.000  C
  C63      1.0000 0.33998  0.65219  0.83248  Biso   1.000  C
  C64      1.0000 0.82819  0.03191  0.33927  Biso   1.000  C
  C65      1.0000 0.34221  0.65313  0.20936  Biso   1.000  C
  C66      1.0000 0.82607  0.16109  0.83248  Biso   1.000  C
  C67      1.0000 0.21037  0.65346  0.33927  Biso   1.000  C
  C68      1.0000 0.82519  0.03064  0.83248  Biso   1.000  C
  C69      1.0000 0.82564  0.65346  0.33927  Biso   1.000  C
  C70      1.0000 0.21079  0.16109  0.83248  Biso   1.000  C
  C71      1.0000 0.82488  0.65313  0.20936  Biso   1.000  C
  C72      1.0000 0.34252  0.03064  0.83248  Biso   1.000  C
  C73      1.0000 0.40197  0.23535  0.68526  Biso   1.000  C
  C74      1.0000 0.34361  0.17813  0.74238  Biso   1.000  C
  C75      1.0000 0.68207  0.50996  0.41109  Biso   1.000  C
  C76      1.0000 0.74044  0.56719  0.35396  Biso   1.000  C
  C77      1.0000 0.40220  0.50996  0.41109  Biso   1.000  C
  C78      1.0000 0.34394  0.56719  0.35396  Biso   1.000  C
  C79      1.0000 0.68184  0.23535  0.68525  Biso   1.000  C
  C80      1.0000 0.74011  0.17813  0.74238  Biso   1.000  C
  C81      1.0000 0.68022  0.23466  0.41109  Biso   1.000  C
  C82      1.0000 0.73781  0.17715  0.35396  Biso   1.000  C
  C83      1.0000 0.40383  0.51065  0.68525  Biso   1.000  C
  C84      1.0000 0.34623  0.56816  0.74238  Biso   1.000  C
  C85      1.0000 0.18916  0.73658  0.91632  Biso   1.000  C
  C86      1.0000 0.24675  0.67907  0.85919  Biso   1.000  C
  C87      1.0000 0.91276  0.01258  0.19048  Biso   1.000  C
  C88      1.0000 0.85517  0.07008  0.24761  Biso   1.000  C
  C89      1.0000 0.19078  0.73727  0.19048  Biso   1.000  C
  C90      1.0000 0.24905  0.68005  0.24761  Biso   1.000  C
  C91      1.0000 0.91114  0.01189  0.91632  Biso   1.000  C
  C92      1.0000 0.85287  0.06911  0.85919  Biso   1.000  C
  C93      1.0000 0.91091  0.73727  0.19048  Biso   1.000  C
  C94      1.0000 0.85255  0.68005  0.24761  Biso   1.000  C
  C95      1.0000 0.19101  0.01189  0.91632  Biso   1.000  C
  C96      1.0000 0.24937  0.06911  0.85919  Biso   1.000  C
  O27      1.0000 0.54202  0.37266  0.54817  Biso   1.000  O
  O28      1.0000 0.05096  0.87458  0.05340  Biso   1.000  O
  O29      1.0000 0.48604  0.19643  0.66324  Biso   1.000  O
  O30      1.0000 0.65994  0.48806  0.49383  Biso   1.000  O
  O31      1.0000 0.36290  0.31837  0.66324  Biso   1.000  O
  O32      1.0000 0.65922  0.48776  0.37239  Biso   1.000  O
  O33      1.0000 0.36304  0.48806  0.49383  Biso   1.000  O
  O34      1.0000 0.65979  0.31837  0.66324  Biso   1.000  O
  O35      1.0000 0.48628  0.48776  0.37239  Biso   1.000  O
  O36      1.0000 0.65897  0.19643  0.66324  Biso   1.000  O
  O37      1.0000 0.65807  0.31764  0.37239  Biso   1.000  O
  O38      1.0000 0.48800  0.48849  0.66324  Biso   1.000  O
  O39      1.0000 0.65797  0.19600  0.49383  Biso   1.000  O
  O40      1.0000 0.36404  0.48849  0.66324  Biso   1.000  O
  O41      1.0000 0.10498  0.75875  0.93834  Biso   1.000  O
  O42      1.0000 0.93501  0.05123  0.10775  Biso   1.000  O
  O43      1.0000 0.22894  0.75875  0.93834  Biso   1.000  O
  O44      1.0000 0.93491  0.92959  0.22918  Biso   1.000  O
  O45      1.0000 0.22994  0.75917  0.10775  Biso   1.000  O
  O46      1.0000 0.93401  0.05081  0.93834  Biso   1.000  O
  O47      1.0000 0.10670  0.75948  0.22918  Biso   1.000  O
  O48      1.0000 0.93319  0.92886  0.93834  Biso   1.000  O
  O49      1.0000 0.93376  0.75948  0.22918  Biso   1.000  O
  O50      1.0000 0.10694  0.05081  0.93834  Biso   1.000  O
  O51      1.0000 0.93304  0.75917  0.10775  Biso   1.000  O
  O52      1.0000 0.23009  0.92886  0.93834  Biso   1.000  O
