data_image0
_cell_length_a       18.3149
_cell_length_b       18.3149
_cell_length_c       18.3149
_cell_angle_alpha    60.3295
_cell_angle_beta     60.3295
_cell_angle_gamma    60.3295

_symmetry_space_group_name_H-M    "P 1"
_symmetry_int_tables_number       1

loop_
  _symmetry_equiv_pos_as_xyz
  'x, y, z'

loop_
  _atom_site_label
  _atom_site_occupancy
  _atom_site_fract_x
  _atom_site_fract_y
  _atom_site_fract_z
  _atom_site_thermal_displace_type
  _atom_site_B_iso_or_equiv
  _atom_site_type_symbol
  Zn1      1.0000 0.20609  0.20609  0.20609  Biso   1.000  Zn
  Zn2      1.0000 0.79391  0.79391  0.79391  Biso   1.000  Zn
  Zn3      1.0000 0.20677  0.37952  0.20677  Biso   1.000  Zn
  Zn4      1.0000 0.20677  0.20677  0.37952  Biso   1.000  Zn
  Zn5      1.0000 0.37952  0.20677  0.20677  Biso   1.000  Zn
  Zn6      1.0000 0.62048  0.79323  0.79323  Biso   1.000  Zn
  Zn7      1.0000 0.79323  0.79323  0.62048  Biso   1.000  Zn
  Zn8      1.0000 0.79323  0.62048  0.79323  Biso   1.000  Zn
  H1       1.0000 0.04260  0.34350  0.56530  Biso   1.000  H
  H2       1.0000 0.56530  0.04260  0.34350  Biso   1.000  H
  H3       1.0000 0.34350  0.56530  0.04260  Biso   1.000  H
  H4       1.0000 0.65650  0.95740  0.43470  Biso   1.000  H
  H5       1.0000 0.95740  0.43470  0.65650  Biso   1.000  H
  H6       1.0000 0.43470  0.65650  0.95740  Biso   1.000  H
  H7       1.0000 0.95740  0.65650  0.43470  Biso   1.000  H
  H8       1.0000 0.43470  0.95740  0.65650  Biso   1.000  H
  H9       1.0000 0.65650  0.43470  0.95740  Biso   1.000  H
  H10      1.0000 0.34350  0.04260  0.56530  Biso   1.000  H
  H11      1.0000 0.04260  0.56530  0.34350  Biso   1.000  H
  H12      1.0000 0.56530  0.34350  0.04260  Biso   1.000  H
  H13      1.0000 0.04880  0.55860  0.04880  Biso   1.000  H
  H14      1.0000 0.04170  0.34450  0.04170  Biso   1.000  H
  H15      1.0000 0.04880  0.04880  0.55860  Biso   1.000  H
  H16      1.0000 0.04170  0.04170  0.34450  Biso   1.000  H
  H17      1.0000 0.55860  0.04880  0.04880  Biso   1.000  H
  H18      1.0000 0.34450  0.04170  0.04170  Biso   1.000  H
  H19      1.0000 0.44140  0.95120  0.95120  Biso   1.000  H
  H20      1.0000 0.65550  0.95830  0.95830  Biso   1.000  H
  H21      1.0000 0.95120  0.95120  0.44140  Biso   1.000  H
  H22      1.0000 0.95830  0.95830  0.65550  Biso   1.000  H
  H23      1.0000 0.95120  0.44140  0.95120  Biso   1.000  H
  H24      1.0000 0.95830  0.65550  0.95830  Biso   1.000  H
  C1       1.0000 0.02770  0.40510  0.53870  Biso   1.000  C
  C2       1.0000 0.53870  0.02770  0.40510  Biso   1.000  C
  C3       1.0000 0.40510  0.53870  0.02770  Biso   1.000  C
  C4       1.0000 0.59490  0.97230  0.46130  Biso   1.000  C
  C5       1.0000 0.97230  0.46130  0.59490  Biso   1.000  C
  C6       1.0000 0.46130  0.59490  0.97230  Biso   1.000  C
  C7       1.0000 0.97230  0.59490  0.46130  Biso   1.000  C
  C8       1.0000 0.46130  0.97230  0.59490  Biso   1.000  C
  C9       1.0000 0.59490  0.46130  0.97230  Biso   1.000  C
  C10      1.0000 0.40510  0.02770  0.53870  Biso   1.000  C
  C11      1.0000 0.02770  0.53870  0.40510  Biso   1.000  C
  C12      1.0000 0.53870  0.40510  0.02770  Biso   1.000  C
  C13      1.0000 0.11130  0.39010  0.11130  Biso   1.000  C
  C14      1.0000 0.05390  0.44400  0.05390  Biso   1.000  C
  C15      1.0000 0.02940  0.53530  0.02940  Biso   1.000  C
  C16      1.0000 0.02520  0.40600  0.02520  Biso   1.000  C
  C17      1.0000 0.11130  0.11130  0.39010  Biso   1.000  C
  C18      1.0000 0.05390  0.05390  0.44400  Biso   1.000  C
  C19      1.0000 0.02940  0.02940  0.53530  Biso   1.000  C
  C20      1.0000 0.02520  0.02520  0.40600  Biso   1.000  C
  C21      1.0000 0.39010  0.11130  0.11130  Biso   1.000  C
  C22      1.0000 0.44400  0.05390  0.05390  Biso   1.000  C
  C23      1.0000 0.53530  0.02940  0.02940  Biso   1.000  C
  C24      1.0000 0.40600  0.02520  0.02520  Biso   1.000  C
  C25      1.0000 0.60990  0.88870  0.88870  Biso   1.000  C
  C26      1.0000 0.55600  0.94610  0.94610  Biso   1.000  C
  C27      1.0000 0.46470  0.97060  0.97060  Biso   1.000  C
  C28      1.0000 0.59400  0.97480  0.97480  Biso   1.000  C
  C29      1.0000 0.88870  0.88870  0.60990  Biso   1.000  C
  C30      1.0000 0.94610  0.94610  0.55600  Biso   1.000  C
  C31      1.0000 0.97060  0.97060  0.46470  Biso   1.000  C
  C32      1.0000 0.97480  0.97480  0.59400  Biso   1.000  C
  C33      1.0000 0.88870  0.60990  0.88870  Biso   1.000  C
  C34      1.0000 0.94610  0.55600  0.94610  Biso   1.000  C
  C35      1.0000 0.97060  0.46470  0.97060  Biso   1.000  C
  C36      1.0000 0.97480  0.59400  0.97480  Biso   1.000  C
  C37      1.0000 0.11170  0.38940  0.38940  Biso   1.000  C
  C38      1.0000 0.05990  0.44245  0.44245  Biso   1.000  C
  C39      1.0000 0.38940  0.11170  0.38940  Biso   1.000  C
  C40      1.0000 0.44245  0.05990  0.44245  Biso   1.000  C
  C41      1.0000 0.38940  0.38940  0.11170  Biso   1.000  C
  C42      1.0000 0.44245  0.44245  0.05990  Biso   1.000  C
  C43      1.0000 0.61060  0.88830  0.61060  Biso   1.000  C
  C44      1.0000 0.55755  0.94010  0.55755  Biso   1.000  C
  C45      1.0000 0.88830  0.61060  0.61060  Biso   1.000  C
  C46      1.0000 0.94010  0.55755  0.55755  Biso   1.000  C
  C47      1.0000 0.61060  0.61060  0.88830  Biso   1.000  C
  C48      1.0000 0.55755  0.55755  0.94010  Biso   1.000  C
  O1       1.0000 0.13529  0.42759  0.30119  Biso   1.000  O
  O2       1.0000 0.30119  0.13529  0.42759  Biso   1.000  O
  O3       1.0000 0.42759  0.30119  0.13529  Biso   1.000  O
  O4       1.0000 0.57241  0.86471  0.69881  Biso   1.000  O
  O5       1.0000 0.86471  0.69881  0.57241  Biso   1.000  O
  O6       1.0000 0.69881  0.57241  0.86471  Biso   1.000  O
  O7       1.0000 0.86471  0.57241  0.69881  Biso   1.000  O
  O8       1.0000 0.69881  0.86471  0.57241  Biso   1.000  O
  O9       1.0000 0.57241  0.69881  0.86471  Biso   1.000  O
  O10      1.0000 0.42759  0.13529  0.30119  Biso   1.000  O
  O11      1.0000 0.13529  0.30119  0.42759  Biso   1.000  O
  O12      1.0000 0.30119  0.42759  0.13529  Biso   1.000  O
  O13      1.0000 0.25153  0.25153  0.25153  Biso   1.000  O
  O14      1.0000 0.74847  0.74847  0.74847  Biso   1.000  O
  O15      1.0000 0.13410  0.30220  0.13410  Biso   1.000  O
  O16      1.0000 0.13380  0.42820  0.13380  Biso   1.000  O
  O17      1.0000 0.13410  0.13410  0.30220  Biso   1.000  O
  O18      1.0000 0.13380  0.13380  0.42820  Biso   1.000  O
  O19      1.0000 0.30220  0.13410  0.13410  Biso   1.000  O
  O20      1.0000 0.42820  0.13380  0.13380  Biso   1.000  O
  O21      1.0000 0.69780  0.86590  0.86590  Biso   1.000  O
  O22      1.0000 0.57180  0.86620  0.86620  Biso   1.000  O
  O23      1.0000 0.86590  0.86590  0.69780  Biso   1.000  O
  O24      1.0000 0.86620  0.86620  0.57180  Biso   1.000  O
  O25      1.0000 0.86590  0.69780  0.86590  Biso   1.000  O
  O26      1.0000 0.86620  0.57180  0.86620  Biso   1.000  O
  Zn9      1.0000 0.00000  1.00000  0.00000  Biso   1.000  Zn
  Zn10     1.0000 0.00102  0.00043  0.17210  Biso   1.000  Zn
  Zn11     1.0000 0.82534  0.00043  0.17210  Biso   1.000  Zn
  Zn12     1.0000 0.99986  0.82762  0.17210  Biso   1.000  Zn
  Zn13     1.0000 0.42521  0.41308  0.75368  Biso   1.000  Zn
  Zn14     1.0000 0.42419  0.41265  0.58158  Biso   1.000  Zn
  Zn15     1.0000 0.42536  0.58547  0.58158  Biso   1.000  Zn
  Zn16     1.0000 0.59987  0.41265  0.58158  Biso   1.000  Zn
  H25      1.0000 0.16912  0.16264  0.80775  Biso   1.000  H
  H26      1.0000 0.16456  0.16070  0.03552  Biso   1.000  H
  H27      1.0000 0.64992  0.86369  0.33205  Biso   1.000  H
  H28      1.0000 0.86683  0.63914  0.33205  Biso   1.000  H
  H29      1.0000 0.16777  0.63839  0.03552  Biso   1.000  H
  H30      1.0000 0.16712  0.86488  0.80775  Biso   1.000  H
  H31      1.0000 0.65192  0.16145  0.33205  Biso   1.000  H
  H32      1.0000 0.86361  0.16145  0.33205  Biso   1.000  H
  H33      1.0000 0.16431  0.86369  0.33205  Biso   1.000  H
  H34      1.0000 0.16952  0.63914  0.33205  Biso   1.000  H
  H35      1.0000 0.65016  0.16070  0.03552  Biso   1.000  H
  H36      1.0000 0.86643  0.16264  0.80775  Biso   1.000  H
  H37      1.0000 0.25609  0.25044  0.94593  Biso   1.000  H
  H38      1.0000 0.26066  0.25238  0.71816  Biso   1.000  H
  H39      1.0000 0.55838  0.77395  0.42164  Biso   1.000  H
  H40      1.0000 0.77530  0.54940  0.42164  Biso   1.000  H
  H41      1.0000 0.77505  0.25238  0.71816  Biso   1.000  H
  H42      1.0000 0.55878  0.25044  0.94593  Biso   1.000  H
  H43      1.0000 0.25569  0.77395  0.42164  Biso   1.000  H
  H44      1.0000 0.26091  0.54940  0.42164  Biso   1.000  H
  H45      1.0000 0.56160  0.25164  0.42164  Biso   1.000  H
  H46      1.0000 0.77329  0.25164  0.42164  Biso   1.000  H
  H47      1.0000 0.25744  0.77469  0.71816  Biso   1.000  H
  H48      1.0000 0.25809  0.54820  0.94593  Biso   1.000  H
  C49      1.0000 0.18799  0.18099  0.83403  Biso   1.000  C
  C50      1.0000 0.18289  0.17883  0.97284  Biso   1.000  C
  C51      1.0000 0.67642  0.80079  0.35025  Biso   1.000  C
  C52      1.0000 0.80312  0.66557  0.35025  Biso   1.000  C
  C53      1.0000 0.18616  0.66462  0.97284  Biso   1.000  C
  C54      1.0000 0.18544  0.80200  0.83403  Biso   1.000  C
  C55      1.0000 0.67897  0.17977  0.35025  Biso   1.000  C
  C56      1.0000 0.79986  0.17977  0.35025  Biso   1.000  C
  C57      1.0000 0.18258  0.80079  0.35025  Biso   1.000  C
  C58      1.0000 0.18839  0.66557  0.35025  Biso   1.000  C
  C59      1.0000 0.67674  0.17883  0.97284  Biso   1.000  C
  C60      1.0000 0.80272  0.18099  0.83403  Biso   1.000  C
  C61      1.0000 0.23722  0.23210  0.91965  Biso   1.000  C
  C62      1.0000 0.24232  0.23426  0.78085  Biso   1.000  C
  C63      1.0000 0.62209  0.74752  0.40343  Biso   1.000  C
  C64      1.0000 0.74879  0.61230  0.40343  Biso   1.000  C
  C65      1.0000 0.74848  0.23426  0.78085  Biso   1.000  C
  C66      1.0000 0.62249  0.23210  0.91965  Biso   1.000  C
  C67      1.0000 0.23682  0.74752  0.40343  Biso   1.000  C
  C68      1.0000 0.24264  0.61230  0.40343  Biso   1.000  C
  C69      1.0000 0.62536  0.23331  0.40343  Biso   1.000  C
  C70      1.0000 0.74624  0.23331  0.40343  Biso   1.000  C
  C71      1.0000 0.23905  0.74846  0.78085  Biso   1.000  C
  C72      1.0000 0.23977  0.61108  0.91965  Biso   1.000  C
  C73      1.0000 0.09671  0.09454  0.99188  Biso   1.000  C
  C74      1.0000 0.15541  0.15210  0.93442  Biso   1.000  C
  C75      1.0000 0.81638  0.81970  0.26627  Biso   1.000  C
  C76      1.0000 0.75768  0.76215  0.32373  Biso   1.000  C
  C77      1.0000 0.09485  0.81901  0.99188  Biso   1.000  C
  C78      1.0000 0.15278  0.76117  0.93442  Biso   1.000  C
  C79      1.0000 0.81824  0.09523  0.26627  Biso   1.000  C
  C80      1.0000 0.76031  0.15308  0.32373  Biso   1.000  C
  C81      1.0000 0.09648  0.81970  0.26627  Biso   1.000  C
  C82      1.0000 0.15509  0.76215  0.32373  Biso   1.000  C
  C83      1.0000 0.81661  0.09454  0.99188  Biso   1.000  C
  C84      1.0000 0.75800  0.15210  0.93442  Biso   1.000  C
  C85      1.0000 0.32850  0.31854  0.76180  Biso   1.000  C
  C86      1.0000 0.26980  0.26098  0.81926  Biso   1.000  C
  C87      1.0000 0.60883  0.59338  0.48741  Biso   1.000  C
  C88      1.0000 0.66754  0.65094  0.42995  Biso   1.000  C
  C89      1.0000 0.60860  0.31854  0.76180  Biso   1.000  C
  C90      1.0000 0.66721  0.26098  0.81926  Biso   1.000  C
  C91      1.0000 0.32873  0.59338  0.48741  Biso   1.000  C
  C92      1.0000 0.27013  0.65094  0.42995  Biso   1.000  C
  C93      1.0000 0.60698  0.31785  0.48741  Biso   1.000  C
  C94      1.0000 0.66491  0.26001  0.42995  Biso   1.000  C
  C95      1.0000 0.33036  0.59407  0.76180  Biso   1.000  C
  C96      1.0000 0.27243  0.65192  0.81926  Biso   1.000  C
  O27      1.0000 0.95655  0.95712  0.12908  Biso   1.000  O
  O28      1.0000 0.46867  0.45596  0.62461  Biso   1.000  O
  O29      1.0000 0.07393  0.07241  0.95303  Biso   1.000  O
  O30      1.0000 0.07465  0.07272  0.07462  Biso   1.000  O
  O31      1.0000 0.77715  0.90273  0.24433  Biso   1.000  O
  O32      1.0000 0.90045  0.78064  0.24433  Biso   1.000  O
  O33      1.0000 0.07268  0.78021  0.07462  Biso   1.000  O
  O34      1.0000 0.07278  0.90200  0.95303  Biso   1.000  O
  O35      1.0000 0.77830  0.07314  0.24433  Biso   1.000  O
  O36      1.0000 0.90241  0.07314  0.24433  Biso   1.000  O
  O37      1.0000 0.07451  0.90273  0.24433  Biso   1.000  O
  O38      1.0000 0.07369  0.78064  0.24433  Biso   1.000  O
  O39      1.0000 0.77730  0.07272  0.07462  Biso   1.000  O
  O40      1.0000 0.90069  0.07241  0.95303  Biso   1.000  O
  O41      1.0000 0.35128  0.34067  0.80065  Biso   1.000  O
  O42      1.0000 0.35056  0.34037  0.67907  Biso   1.000  O
  O43      1.0000 0.52477  0.63245  0.50936  Biso   1.000  O
  O44      1.0000 0.64806  0.51036  0.50936  Biso   1.000  O
  O45      1.0000 0.64792  0.34037  0.67907  Biso   1.000  O
  O46      1.0000 0.52452  0.34067  0.80065  Biso   1.000  O
  O47      1.0000 0.35153  0.63245  0.50936  Biso   1.000  O
  O48      1.0000 0.35070  0.51036  0.50936  Biso   1.000  O
  O49      1.0000 0.52280  0.33994  0.50936  Biso   1.000  O
  O50      1.0000 0.64691  0.33994  0.50936  Biso   1.000  O
  O51      1.0000 0.35253  0.63287  0.67907  Biso   1.000  O
  O52      1.0000 0.35243  0.51109  0.80065  Biso   1.000  O
