data_image0
_cell_length_a       18.3149
_cell_length_b       18.3149
_cell_length_c       18.3149
_cell_angle_alpha    60.3295
_cell_angle_beta     60.3295
_cell_angle_gamma    60.3295

_symmetry_space_group_name_H-M    "P 1"
_symmetry_int_tables_number       1

loop_
  _symmetry_equiv_pos_as_xyz
  'x, y, z'

loop_
  _atom_site_label
  _atom_site_occupancy
  _atom_site_fract_x
  _atom_site_fract_y
  _atom_site_fract_z
  _atom_site_thermal_displace_type
  _atom_site_B_iso_or_equiv
  _atom_site_type_symbol
  C1       1.0000 0.20609  0.20609  0.20609  Biso   1.000  C
  C2       1.0000 0.79391  0.79391  0.79391  Biso   1.000  C
  C3       1.0000 0.20677  0.37952  0.20677  Biso   1.000  C
  C4       1.0000 0.20677  0.20677  0.37952  Biso   1.000  C
  C5       1.0000 0.37952  0.20677  0.20677  Biso   1.000  C
  C6       1.0000 0.62048  0.79323  0.79323  Biso   1.000  C
  C7       1.0000 0.79323  0.79323  0.62048  Biso   1.000  C
  C8       1.0000 0.79323  0.62048  0.79323  Biso   1.000  C
  C9       1.0000 0.04260  0.34350  0.56530  Biso   1.000  C
  C10      1.0000 0.56530  0.04260  0.34350  Biso   1.000  C
  C11      1.0000 0.34350  0.56530  0.04260  Biso   1.000  C
  C12      1.0000 0.65650  0.95740  0.43470  Biso   1.000  C
  C13      1.0000 0.95740  0.43470  0.65650  Biso   1.000  C
  C14      1.0000 0.43470  0.65650  0.95740  Biso   1.000  C
  C15      1.0000 0.95740  0.65650  0.43470  Biso   1.000  C
  C16      1.0000 0.43470  0.95740  0.65650  Biso   1.000  C
  C17      1.0000 0.65650  0.43470  0.95740  Biso   1.000  C
  C18      1.0000 0.34350  0.04260  0.56530  Biso   1.000  C
  C19      1.0000 0.04260  0.56530  0.34350  Biso   1.000  C
  C20      1.0000 0.56530  0.34350  0.04260  Biso   1.000  C
  C21      1.0000 0.04880  0.55860  0.04880  Biso   1.000  C
  C22      1.0000 0.04170  0.34450  0.04170  Biso   1.000  C
  C23      1.0000 0.04880  0.04880  0.55860  Biso   1.000  C
  C24      1.0000 0.04170  0.04170  0.34450  Biso   1.000  C
  C25      1.0000 0.55860  0.04880  0.04880  Biso   1.000  C
  C26      1.0000 0.34450  0.04170  0.04170  Biso   1.000  C
  C27      1.0000 0.44140  0.95120  0.95120  Biso   1.000  C
  C28      1.0000 0.65550  0.95830  0.95830  Biso   1.000  C
  C29      1.0000 0.95120  0.95120  0.44140  Biso   1.000  C
  C30      1.0000 0.95830  0.95830  0.65550  Biso   1.000  C
  C31      1.0000 0.95120  0.44140  0.95120  Biso   1.000  C
  C32      1.0000 0.95830  0.65550  0.95830  Biso   1.000  C
  C33      1.0000 0.02770  0.40510  0.53870  Biso   1.000  C
  C34      1.0000 0.53870  0.02770  0.40510  Biso   1.000  C
  C35      1.0000 0.40510  0.53870  0.02770  Biso   1.000  C
  C36      1.0000 0.59490  0.97230  0.46130  Biso   1.000  C
  C37      1.0000 0.97230  0.46130  0.59490  Biso   1.000  C
  C38      1.0000 0.46130  0.59490  0.97230  Biso   1.000  C
  C39      1.0000 0.97230  0.59490  0.46130  Biso   1.000  C
  C40      1.0000 0.46130  0.97230  0.59490  Biso   1.000  C
  C41      1.0000 0.59490  0.46130  0.97230  Biso   1.000  C
  C42      1.0000 0.40510  0.02770  0.53870  Biso   1.000  C
  C43      1.0000 0.02770  0.53870  0.40510  Biso   1.000  C
  C44      1.0000 0.53870  0.40510  0.02770  Biso   1.000  C
  C45      1.0000 0.11130  0.39010  0.11130  Biso   1.000  C
  C46      1.0000 0.05390  0.44400  0.05390  Biso   1.000  C
  C47      1.0000 0.02940  0.53530  0.02940  Biso   1.000  C
  C48      1.0000 0.02520  0.40600  0.02520  Biso   1.000  C
  C49      1.0000 0.11130  0.11130  0.39010  Biso   1.000  C
  C50      1.0000 0.05390  0.05390  0.44400  Biso   1.000  C
  C51      1.0000 0.02940  0.02940  0.53530  Biso   1.000  C
  C52      1.0000 0.02520  0.02520  0.40600  Biso   1.000  C
  C53      1.0000 0.39010  0.11130  0.11130  Biso   1.000  C
  C54      1.0000 0.44400  0.05390  0.05390  Biso   1.000  C
  C55      1.0000 0.53530  0.02940  0.02940  Biso   1.000  C
  C56      1.0000 0.40600  0.02520  0.02520  Biso   1.000  C
  C57      1.0000 0.60990  0.88870  0.88870  Biso   1.000  C
  C58      1.0000 0.55600  0.94610  0.94610  Biso   1.000  C
  C59      1.0000 0.46470  0.97060  0.97060  Biso   1.000  C
  C60      1.0000 0.59400  0.97480  0.97480  Biso   1.000  C
  C61      1.0000 0.88870  0.88870  0.60990  Biso   1.000  C
  C62      1.0000 0.94610  0.94610  0.55600  Biso   1.000  C
  C63      1.0000 0.97060  0.97060  0.46470  Biso   1.000  C
  C64      1.0000 0.97480  0.97480  0.59400  Biso   1.000  C
  C65      1.0000 0.88870  0.60990  0.88870  Biso   1.000  C
  C66      1.0000 0.94610  0.55600  0.94610  Biso   1.000  C
  C67      1.0000 0.97060  0.46470  0.97060  Biso   1.000  C
  C68      1.0000 0.97480  0.59400  0.97480  Biso   1.000  C
  C69      1.0000 0.11170  0.38940  0.38940  Biso   1.000  C
  C70      1.0000 0.05990  0.44245  0.44245  Biso   1.000  C
  C71      1.0000 0.38940  0.11170  0.38940  Biso   1.000  C
  C72      1.0000 0.44245  0.05990  0.44245  Biso   1.000  C
  C73      1.0000 0.38940  0.38940  0.11170  Biso   1.000  C
  C74      1.0000 0.44245  0.44245  0.05990  Biso   1.000  C
  C75      1.0000 0.61060  0.88830  0.61060  Biso   1.000  C
  C76      1.0000 0.55755  0.94010  0.55755  Biso   1.000  C
  C77      1.0000 0.88830  0.61060  0.61060  Biso   1.000  C
  C78      1.0000 0.94010  0.55755  0.55755  Biso   1.000  C
  C79      1.0000 0.61060  0.61060  0.88830  Biso   1.000  C
  C80      1.0000 0.55755  0.55755  0.94010  Biso   1.000  C
  C81      1.0000 0.13529  0.42759  0.30119  Biso   1.000  C
  C82      1.0000 0.30119  0.13529  0.42759  Biso   1.000  C
  C83      1.0000 0.42759  0.30119  0.13529  Biso   1.000  C
  C84      1.0000 0.57241  0.86471  0.69881  Biso   1.000  C
  C85      1.0000 0.86471  0.69881  0.57241  Biso   1.000  C
  C86      1.0000 0.69881  0.57241  0.86471  Biso   1.000  C
  C87      1.0000 0.86471  0.57241  0.69881  Biso   1.000  C
  C88      1.0000 0.69881  0.86471  0.57241  Biso   1.000  C
  C89      1.0000 0.57241  0.69881  0.86471  Biso   1.000  C
  C90      1.0000 0.42759  0.13529  0.30119  Biso   1.000  C
  C91      1.0000 0.13529  0.30119  0.42759  Biso   1.000  C
  C92      1.0000 0.30119  0.42759  0.13529  Biso   1.000  C
  C93      1.0000 0.25153  0.25153  0.25153  Biso   1.000  C
  C94      1.0000 0.74847  0.74847  0.74847  Biso   1.000  C
  C95      1.0000 0.13410  0.30220  0.13410  Biso   1.000  C
  C96      1.0000 0.13380  0.42820  0.13380  Biso   1.000  C
  C97      1.0000 0.13410  0.13410  0.30220  Biso   1.000  C
  C98      1.0000 0.13380  0.13380  0.42820  Biso   1.000  C
  C99      1.0000 0.30220  0.13410  0.13410  Biso   1.000  C
  C100     1.0000 0.42820  0.13380  0.13380  Biso   1.000  C
  C101     1.0000 0.69780  0.86590  0.86590  Biso   1.000  C
  C102     1.0000 0.57180  0.86620  0.86620  Biso   1.000  C
  C103     1.0000 0.86590  0.86590  0.69780  Biso   1.000  C
  C104     1.0000 0.86620  0.86620  0.57180  Biso   1.000  C
  C105     1.0000 0.86590  0.69780  0.86590  Biso   1.000  C
  C106     1.0000 0.86620  0.57180  0.86620  Biso   1.000  C
  O1       1.0000 1.00000  1.00000  1.00000  Biso   1.000  O
  O2       1.0000 0.00102  0.00043  0.17196  Biso   1.000  O
  O3       1.0000 0.82548  0.00043  0.17196  Biso   1.000  O
  O4       1.0000 0.99986  0.82776  0.17196  Biso   1.000  O
  O5       1.0000 0.42462  0.41251  0.75283  Biso   1.000  O
  O6       1.0000 0.42361  0.41208  0.58087  Biso   1.000  O
  O7       1.0000 0.42477  0.58475  0.58087  Biso   1.000  O
  O8       1.0000 0.59914  0.41208  0.58087  Biso   1.000  O
  O9       1.0000 0.16929  0.16281  0.80677  Biso   1.000  O
  O10      1.0000 0.16473  0.16087  0.03474  Biso   1.000  O
  O11      1.0000 0.64905  0.86305  0.33207  Biso   1.000  O
  O12      1.0000 0.86617  0.63830  0.33207  Biso   1.000  O
  O13      1.0000 0.16793  0.63755  0.03474  Biso   1.000  O
  O14      1.0000 0.16728  0.86424  0.80677  Biso   1.000  O
  O15      1.0000 0.65106  0.16162  0.33207  Biso   1.000  O
  O16      1.0000 0.86297  0.16162  0.33207  Biso   1.000  O
  O17      1.0000 0.16448  0.86305  0.33207  Biso   1.000  O
  O18      1.0000 0.16969  0.63830  0.33207  Biso   1.000  O
  O19      1.0000 0.64930  0.16087  0.03474  Biso   1.000  O
  O20      1.0000 0.86578  0.16281  0.80677  Biso   1.000  O
  O21      1.0000 0.25533  0.24970  0.94606  Biso   1.000  O
  O22      1.0000 0.25990  0.25164  0.71809  Biso   1.000  O
  O23      1.0000 0.55845  0.77422  0.42076  Biso   1.000  O
  O24      1.0000 0.77557  0.54946  0.42076  Biso   1.000  O
  O25      1.0000 0.77532  0.25164  0.71809  Biso   1.000  O
  O26      1.0000 0.55885  0.24970  0.94606  Biso   1.000  O
  O27      1.0000 0.25493  0.77422  0.42076  Biso   1.000  O
  O28      1.0000 0.26015  0.54946  0.42076  Biso   1.000  O
  O29      1.0000 0.56166  0.25089  0.42076  Biso   1.000  O
  O30      1.0000 0.77356  0.25089  0.42076  Biso   1.000  O
  O31      1.0000 0.25669  0.77496  0.71809  Biso   1.000  O
  O32      1.0000 0.25734  0.54827  0.94606  Biso   1.000  O
  O33      1.0000 0.18795  0.18096  0.83345  Biso   1.000  O
  O34      1.0000 0.18286  0.17879  0.97206  Biso   1.000  O
  O35      1.0000 0.67597  0.80015  0.35008  Biso   1.000  O
  O36      1.0000 0.80247  0.66513  0.35008  Biso   1.000  O
  O37      1.0000 0.18612  0.66418  0.97206  Biso   1.000  O
  O38      1.0000 0.18540  0.80136  0.83345  Biso   1.000  O
  O39      1.0000 0.67852  0.17974  0.35008  Biso   1.000  O
  O40      1.0000 0.79921  0.17974  0.35008  Biso   1.000  O
  O41      1.0000 0.18254  0.80015  0.35008  Biso   1.000  O
  O42      1.0000 0.18836  0.66513  0.35008  Biso   1.000  O
  O43      1.0000 0.67629  0.17879  0.97206  Biso   1.000  O
  O44      1.0000 0.80207  0.18096  0.83345  Biso   1.000  O
  O45      1.0000 0.23667  0.23156  0.91938  Biso   1.000  O
  O46      1.0000 0.24177  0.23372  0.78077  Biso   1.000  O
  O47      1.0000 0.62215  0.74739  0.40275  Biso   1.000  O
  O48      1.0000 0.74866  0.61236  0.40275  Biso   1.000  O
  O49      1.0000 0.74834  0.23372  0.78077  Biso   1.000  O
  O50      1.0000 0.62256  0.23156  0.91938  Biso   1.000  O
  O51      1.0000 0.23627  0.74739  0.40275  Biso   1.000  O
  O52      1.0000 0.24209  0.61236  0.40275  Biso   1.000  O
  O53      1.0000 0.62542  0.23277  0.40275  Biso   1.000  O
  O54      1.0000 0.74610  0.23277  0.40275  Biso   1.000  O
  O55      1.0000 0.23850  0.74833  0.78077  Biso   1.000  O
  O56      1.0000 0.23923  0.61115  0.91938  Biso   1.000  O
  O57      1.0000 0.09653  0.09437  0.99198  Biso   1.000  O
  O58      1.0000 0.15515  0.15184  0.93460  Biso   1.000  O
  O59      1.0000 0.81663  0.81995  0.26596  Biso   1.000  O
  O60      1.0000 0.75801  0.76247  0.32333  Biso   1.000  O
  O61      1.0000 0.09468  0.81926  0.99198  Biso   1.000  O
  O62      1.0000 0.15253  0.76150  0.93460  Biso   1.000  O
  O63      1.0000 0.81848  0.09506  0.26596  Biso   1.000  O
  O64      1.0000 0.76064  0.15282  0.32333  Biso   1.000  O
  O65      1.0000 0.09630  0.81995  0.26596  Biso   1.000  O
  O66      1.0000 0.15483  0.76247  0.32333  Biso   1.000  O
  O67      1.0000 0.81686  0.09437  0.99198  Biso   1.000  O
  O68      1.0000 0.75834  0.15184  0.93460  Biso   1.000  O
  O69      1.0000 0.32809  0.31814  0.76085  Biso   1.000  O
  O70      1.0000 0.26947  0.26067  0.81822  Biso   1.000  O
  O71      1.0000 0.60799  0.59257  0.48687  Biso   1.000  O
  O72      1.0000 0.66661  0.65004  0.42950  Biso   1.000  O
  O73      1.0000 0.60776  0.31814  0.76085  Biso   1.000  O
  O74      1.0000 0.66629  0.26067  0.81822  Biso   1.000  O
  O75      1.0000 0.32832  0.59257  0.48687  Biso   1.000  O
  O76      1.0000 0.26980  0.65004  0.42950  Biso   1.000  O
  O77      1.0000 0.60614  0.31745  0.48687  Biso   1.000  O
  O78      1.0000 0.66399  0.25969  0.42950  Biso   1.000  O
  O79      1.0000 0.32994  0.59326  0.76085  Biso   1.000  O
  O80      1.0000 0.27210  0.65102  0.81822  Biso   1.000  O
  O81      1.0000 0.95658  0.95716  0.12897  Biso   1.000  O
  O82      1.0000 0.46804  0.45535  0.62386  Biso   1.000  O
  O83      1.0000 0.07366  0.07214  0.95359  Biso   1.000  O
  O84      1.0000 0.07437  0.07244  0.07446  Biso   1.000  O
  O85      1.0000 0.77786  0.90271  0.24391  Biso   1.000  O
  O86      1.0000 0.90043  0.78134  0.24391  Biso   1.000  O
  O87      1.0000 0.07241  0.78091  0.07446  Biso   1.000  O
  O88      1.0000 0.07251  0.90198  0.95359  Biso   1.000  O
  O89      1.0000 0.77901  0.07287  0.24391  Biso   1.000  O
  O90      1.0000 0.90240  0.07287  0.24391  Biso   1.000  O
  O91      1.0000 0.07423  0.90271  0.24391  Biso   1.000  O
  O92      1.0000 0.07341  0.78134  0.24391  Biso   1.000  O
  O93      1.0000 0.77801  0.07244  0.07446  Biso   1.000  O
  O94      1.0000 0.90068  0.07214  0.95359  Biso   1.000  O
  O95      1.0000 0.35097  0.34037  0.79924  Biso   1.000  O
  O96      1.0000 0.35025  0.34007  0.67837  Biso   1.000  O
  O97      1.0000 0.52419  0.63118  0.50892  Biso   1.000  O
  O98      1.0000 0.64676  0.50980  0.50892  Biso   1.000  O
  O99      1.0000 0.64662  0.34007  0.67837  Biso   1.000  O
  O100     1.0000 0.52395  0.34037  0.79924  Biso   1.000  O
  O101     1.0000 0.35121  0.63118  0.50892  Biso   1.000  O
  O102     1.0000 0.35040  0.50980  0.50892  Biso   1.000  O
  O103     1.0000 0.52223  0.33964  0.50892  Biso   1.000  O
  O104     1.0000 0.64562  0.33964  0.50892  Biso   1.000  O
  O105     1.0000 0.35222  0.63160  0.67837  Biso   1.000  O
  O106     1.0000 0.35211  0.51053  0.79924  Biso   1.000  O
