data_image0
_cell_length_a       18.3149
_cell_length_b       18.3149
_cell_length_c       18.3149
_cell_angle_alpha    60.3295
_cell_angle_beta     60.3295
_cell_angle_gamma    60.3295

_symmetry_space_group_name_H-M    "P 1"
_symmetry_int_tables_number       1

loop_
  _symmetry_equiv_pos_as_xyz
  'x, y, z'

loop_
  _atom_site_label
  _atom_site_occupancy
  _atom_site_fract_x
  _atom_site_fract_y
  _atom_site_fract_z
  _atom_site_thermal_displace_type
  _atom_site_B_iso_or_equiv
  _atom_site_type_symbol
  C1       1.0000 0.20609  0.20609  0.20609  Biso   1.000  C
  C2       1.0000 0.79391  0.79391  0.79391  Biso   1.000  C
  C3       1.0000 0.20677  0.37952  0.20677  Biso   1.000  C
  C4       1.0000 0.20677  0.20677  0.37952  Biso   1.000  C
  C5       1.0000 0.37952  0.20677  0.20677  Biso   1.000  C
  C6       1.0000 0.62048  0.79323  0.79323  Biso   1.000  C
  C7       1.0000 0.79323  0.79323  0.62048  Biso   1.000  C
  C8       1.0000 0.79323  0.62048  0.79323  Biso   1.000  C
  C9       1.0000 0.04260  0.34350  0.56530  Biso   1.000  C
  C10      1.0000 0.56530  0.04260  0.34350  Biso   1.000  C
  C11      1.0000 0.34350  0.56530  0.04260  Biso   1.000  C
  C12      1.0000 0.65650  0.95740  0.43470  Biso   1.000  C
  C13      1.0000 0.95740  0.43470  0.65650  Biso   1.000  C
  C14      1.0000 0.43470  0.65650  0.95740  Biso   1.000  C
  C15      1.0000 0.95740  0.65650  0.43470  Biso   1.000  C
  C16      1.0000 0.43470  0.95740  0.65650  Biso   1.000  C
  C17      1.0000 0.65650  0.43470  0.95740  Biso   1.000  C
  C18      1.0000 0.34350  0.04260  0.56530  Biso   1.000  C
  C19      1.0000 0.04260  0.56530  0.34350  Biso   1.000  C
  C20      1.0000 0.56530  0.34350  0.04260  Biso   1.000  C
  C21      1.0000 0.04880  0.55860  0.04880  Biso   1.000  C
  C22      1.0000 0.04170  0.34450  0.04170  Biso   1.000  C
  C23      1.0000 0.04880  0.04880  0.55860  Biso   1.000  C
  C24      1.0000 0.04170  0.04170  0.34450  Biso   1.000  C
  C25      1.0000 0.55860  0.04880  0.04880  Biso   1.000  C
  C26      1.0000 0.34450  0.04170  0.04170  Biso   1.000  C
  C27      1.0000 0.44140  0.95120  0.95120  Biso   1.000  C
  C28      1.0000 0.65550  0.95830  0.95830  Biso   1.000  C
  C29      1.0000 0.95120  0.95120  0.44140  Biso   1.000  C
  C30      1.0000 0.95830  0.95830  0.65550  Biso   1.000  C
  C31      1.0000 0.95120  0.44140  0.95120  Biso   1.000  C
  C32      1.0000 0.95830  0.65550  0.95830  Biso   1.000  C
  C33      1.0000 0.02770  0.40510  0.53870  Biso   1.000  C
  C34      1.0000 0.53870  0.02770  0.40510  Biso   1.000  C
  C35      1.0000 0.40510  0.53870  0.02770  Biso   1.000  C
  C36      1.0000 0.59490  0.97230  0.46130  Biso   1.000  C
  C37      1.0000 0.97230  0.46130  0.59490  Biso   1.000  C
  C38      1.0000 0.46130  0.59490  0.97230  Biso   1.000  C
  C39      1.0000 0.97230  0.59490  0.46130  Biso   1.000  C
  C40      1.0000 0.46130  0.97230  0.59490  Biso   1.000  C
  C41      1.0000 0.59490  0.46130  0.97230  Biso   1.000  C
  C42      1.0000 0.40510  0.02770  0.53870  Biso   1.000  C
  C43      1.0000 0.02770  0.53870  0.40510  Biso   1.000  C
  C44      1.0000 0.53870  0.40510  0.02770  Biso   1.000  C
  C45      1.0000 0.11130  0.39010  0.11130  Biso   1.000  C
  C46      1.0000 0.05390  0.44400  0.05390  Biso   1.000  C
  C47      1.0000 0.02940  0.53530  0.02940  Biso   1.000  C
  C48      1.0000 0.02520  0.40600  0.02520  Biso   1.000  C
  C49      1.0000 0.11130  0.11130  0.39010  Biso   1.000  C
  C50      1.0000 0.05390  0.05390  0.44400  Biso   1.000  C
  C51      1.0000 0.02940  0.02940  0.53530  Biso   1.000  C
  C52      1.0000 0.02520  0.02520  0.40600  Biso   1.000  C
  C53      1.0000 0.39010  0.11130  0.11130  Biso   1.000  C
  C54      1.0000 0.44400  0.05390  0.05390  Biso   1.000  C
  C55      1.0000 0.53530  0.02940  0.02940  Biso   1.000  C
  C56      1.0000 0.40600  0.02520  0.02520  Biso   1.000  C
  C57      1.0000 0.60990  0.88870  0.88870  Biso   1.000  C
  C58      1.0000 0.55600  0.94610  0.94610  Biso   1.000  C
  C59      1.0000 0.46470  0.97060  0.97060  Biso   1.000  C
  C60      1.0000 0.59400  0.97480  0.97480  Biso   1.000  C
  C61      1.0000 0.88870  0.88870  0.60990  Biso   1.000  C
  C62      1.0000 0.94610  0.94610  0.55600  Biso   1.000  C
  C63      1.0000 0.97060  0.97060  0.46470  Biso   1.000  C
  C64      1.0000 0.97480  0.97480  0.59400  Biso   1.000  C
  C65      1.0000 0.88870  0.60990  0.88870  Biso   1.000  C
  C66      1.0000 0.94610  0.55600  0.94610  Biso   1.000  C
  C67      1.0000 0.97060  0.46470  0.97060  Biso   1.000  C
  C68      1.0000 0.97480  0.59400  0.97480  Biso   1.000  C
  C69      1.0000 0.11170  0.38940  0.38940  Biso   1.000  C
  C70      1.0000 0.05990  0.44245  0.44245  Biso   1.000  C
  C71      1.0000 0.38940  0.11170  0.38940  Biso   1.000  C
  C72      1.0000 0.44245  0.05990  0.44245  Biso   1.000  C
  C73      1.0000 0.38940  0.38940  0.11170  Biso   1.000  C
  C74      1.0000 0.44245  0.44245  0.05990  Biso   1.000  C
  C75      1.0000 0.61060  0.88830  0.61060  Biso   1.000  C
  C76      1.0000 0.55755  0.94010  0.55755  Biso   1.000  C
  C77      1.0000 0.88830  0.61060  0.61060  Biso   1.000  C
  C78      1.0000 0.94010  0.55755  0.55755  Biso   1.000  C
  C79      1.0000 0.61060  0.61060  0.88830  Biso   1.000  C
  C80      1.0000 0.55755  0.55755  0.94010  Biso   1.000  C
  C81      1.0000 0.13529  0.42759  0.30119  Biso   1.000  C
  C82      1.0000 0.30119  0.13529  0.42759  Biso   1.000  C
  C83      1.0000 0.42759  0.30119  0.13529  Biso   1.000  C
  C84      1.0000 0.57241  0.86471  0.69881  Biso   1.000  C
  C85      1.0000 0.86471  0.69881  0.57241  Biso   1.000  C
  C86      1.0000 0.69881  0.57241  0.86471  Biso   1.000  C
  C87      1.0000 0.86471  0.57241  0.69881  Biso   1.000  C
  C88      1.0000 0.69881  0.86471  0.57241  Biso   1.000  C
  C89      1.0000 0.57241  0.69881  0.86471  Biso   1.000  C
  C90      1.0000 0.42759  0.13529  0.30119  Biso   1.000  C
  C91      1.0000 0.13529  0.30119  0.42759  Biso   1.000  C
  C92      1.0000 0.30119  0.42759  0.13529  Biso   1.000  C
  C93      1.0000 0.25153  0.25153  0.25153  Biso   1.000  C
  C94      1.0000 0.74847  0.74847  0.74847  Biso   1.000  C
  C95      1.0000 0.13410  0.30220  0.13410  Biso   1.000  C
  C96      1.0000 0.13380  0.42820  0.13380  Biso   1.000  C
  C97      1.0000 0.13410  0.13410  0.30220  Biso   1.000  C
  C98      1.0000 0.13380  0.13380  0.42820  Biso   1.000  C
  C99      1.0000 0.30220  0.13410  0.13410  Biso   1.000  C
  C100     1.0000 0.42820  0.13380  0.13380  Biso   1.000  C
  C101     1.0000 0.69780  0.86590  0.86590  Biso   1.000  C
  C102     1.0000 0.57180  0.86620  0.86620  Biso   1.000  C
  C103     1.0000 0.86590  0.86590  0.69780  Biso   1.000  C
  C104     1.0000 0.86620  0.86620  0.57180  Biso   1.000  C
  C105     1.0000 0.86590  0.69780  0.86590  Biso   1.000  C
  C106     1.0000 0.86620  0.57180  0.86620  Biso   1.000  C
  O1       1.0000 0.58629  0.24197  0.59047  Biso   1.000  O
  O2       1.0000 0.58745  0.41485  0.59047  Biso   1.000  O
  O3       1.0000 0.41170  0.41485  0.59047  Biso   1.000  O
  O4       1.0000 0.58643  0.41442  0.41830  Biso   1.000  O
  O5       1.0000 0.00999  0.82928  0.00878  Biso   1.000  O
  O6       1.0000 0.01115  0.00216  0.00878  Biso   1.000  O
  O7       1.0000 0.18573  0.82928  0.00878  Biso   1.000  O
  O8       1.0000 0.01100  0.82971  0.18094  Biso   1.000  O
  O9       1.0000 0.44684  0.05780  0.75053  Biso   1.000  O
  O10      1.0000 0.75112  0.57524  0.45415  Biso   1.000  O
  O11      1.0000 0.22410  0.27837  0.75053  Biso   1.000  O
  O12      1.0000 0.74982  0.57469  0.23450  Biso   1.000  O
  O13      1.0000 0.22435  0.57524  0.45415  Biso   1.000  O
  O14      1.0000 0.75087  0.27837  0.75053  Biso   1.000  O
  O15      1.0000 0.44728  0.57469  0.23450  Biso   1.000  O
  O16      1.0000 0.74939  0.05780  0.75053  Biso   1.000  O
  O17      1.0000 0.74782  0.27707  0.23450  Biso   1.000  O
  O18      1.0000 0.45033  0.57598  0.75053  Biso   1.000  O
  O19      1.0000 0.74763  0.05706  0.45415  Biso   1.000  O
  O20      1.0000 0.22610  0.57598  0.75053  Biso   1.000  O
  O21      1.0000 0.14711  0.66814  0.84871  Biso   1.000  O
  O22      1.0000 0.84980  0.18707  0.14509  Biso   1.000  O
  O23      1.0000 0.37133  0.66814  0.84871  Biso   1.000  O
  O24      1.0000 0.84962  0.96705  0.36474  Biso   1.000  O
  O25      1.0000 0.37309  0.66889  0.14509  Biso   1.000  O
  O26      1.0000 0.84805  0.18633  0.84871  Biso   1.000  O
  O27      1.0000 0.15016  0.66944  0.36474  Biso   1.000  O
  O28      1.0000 0.84657  0.96575  0.84871  Biso   1.000  O
  O29      1.0000 0.84762  0.66944  0.36474  Biso   1.000  O
  O30      1.0000 0.15059  0.18633  0.84871  Biso   1.000  O
  O31      1.0000 0.84632  0.66889  0.14509  Biso   1.000  O
  O32      1.0000 0.37334  0.96575  0.84871  Biso   1.000  O
  O33      1.0000 0.38317  0.08427  0.76870  Biso   1.000  O
  O34      1.0000 0.76942  0.59332  0.39150  Biso   1.000  O
  O35      1.0000 0.25065  0.21550  0.76870  Biso   1.000  O
  O36      1.0000 0.76865  0.59300  0.26081  Biso   1.000  O
  O37      1.0000 0.25097  0.59332  0.39150  Biso   1.000  O
  O38      1.0000 0.76910  0.21550  0.76870  Biso   1.000  O
  O39      1.0000 0.38360  0.59300  0.26081  Biso   1.000  O
  O40      1.0000 0.76822  0.08427  0.76870  Biso   1.000  O
  O41      1.0000 0.76610  0.21422  0.26081  Biso   1.000  O
  O42      1.0000 0.38660  0.59427  0.76870  Biso   1.000  O
  O43      1.0000 0.76599  0.08332  0.39150  Biso   1.000  O
  O44      1.0000 0.25320  0.59427  0.76870  Biso   1.000  O
  O45      1.0000 0.21084  0.64985  0.83054  Biso   1.000  O
  O46      1.0000 0.83145  0.16080  0.20774  Biso   1.000  O
  O47      1.0000 0.34424  0.64985  0.83054  Biso   1.000  O
  O48      1.0000 0.83134  0.02990  0.33843  Biso   1.000  O
  O49      1.0000 0.34647  0.65080  0.20774  Biso   1.000  O
  O50      1.0000 0.82922  0.15985  0.83054  Biso   1.000  O
  O51      1.0000 0.21384  0.65113  0.33843  Biso   1.000  O
  O52      1.0000 0.82834  0.02863  0.83054  Biso   1.000  O
  O53      1.0000 0.82879  0.65113  0.33843  Biso   1.000  O
  O54      1.0000 0.21427  0.15985  0.83054  Biso   1.000  O
  O55      1.0000 0.82802  0.65080  0.20774  Biso   1.000  O
  O56      1.0000 0.34679  0.02863  0.83054  Biso   1.000  O
  O57      1.0000 0.40276  0.23405  0.68467  Biso   1.000  O
  O58      1.0000 0.34421  0.17665  0.74197  Biso   1.000  O
  O59      1.0000 0.68319  0.50899  0.41018  Biso   1.000  O
  O60      1.0000 0.74173  0.56639  0.35288  Biso   1.000  O
  O61      1.0000 0.40299  0.50899  0.41018  Biso   1.000  O
  O62      1.0000 0.34454  0.56639  0.35288  Biso   1.000  O
  O63      1.0000 0.68296  0.23405  0.68467  Biso   1.000  O
  O64      1.0000 0.74140  0.17665  0.74197  Biso   1.000  O
  O65      1.0000 0.68133  0.23336  0.41018  Biso   1.000  O
  O66      1.0000 0.73910  0.17568  0.35288  Biso   1.000  O
  O67      1.0000 0.40461  0.50968  0.68467  Biso   1.000  O
  O68      1.0000 0.34684  0.56737  0.74197  Biso   1.000  O
  O69      1.0000 0.19283  0.73444  0.91457  Biso   1.000  O
  O70      1.0000 0.25060  0.67676  0.85727  Biso   1.000  O
  O71      1.0000 0.91610  0.01076  0.18906  Biso   1.000  O
  O72      1.0000 0.85834  0.06845  0.24636  Biso   1.000  O
  O73      1.0000 0.19445  0.73513  0.18906  Biso   1.000  O
  O74      1.0000 0.25290  0.67773  0.24636  Biso   1.000  O
  O75      1.0000 0.91448  0.01007  0.91457  Biso   1.000  O
  O76      1.0000 0.85603  0.06747  0.85727  Biso   1.000  O
  O77      1.0000 0.91425  0.73513  0.18906  Biso   1.000  O
  O78      1.0000 0.85571  0.67773  0.24636  Biso   1.000  O
  O79      1.0000 0.19468  0.01007  0.91457  Biso   1.000  O
  O80      1.0000 0.25323  0.06747  0.85727  Biso   1.000  O
  O81      1.0000 0.54297  0.37152  0.54743  Biso   1.000  O
  O82      1.0000 0.05447  0.87260  0.05182  Biso   1.000  O
  O83      1.0000 0.48691  0.19498  0.66269  Biso   1.000  O
  O84      1.0000 0.66109  0.48713  0.49301  Biso   1.000  O
  O85      1.0000 0.36352  0.31717  0.66269  Biso   1.000  O
  O86      1.0000 0.66037  0.48682  0.37133  Biso   1.000  O
  O87      1.0000 0.36366  0.48713  0.49301  Biso   1.000  O
  O88      1.0000 0.66094  0.31717  0.66269  Biso   1.000  O
  O89      1.0000 0.48716  0.48682  0.37133  Biso   1.000  O
  O90      1.0000 0.66012  0.19498  0.66269  Biso   1.000  O
  O91      1.0000 0.65922  0.31644  0.37133  Biso   1.000  O
  O92      1.0000 0.48888  0.48755  0.66269  Biso   1.000  O
  O93      1.0000 0.65912  0.19455  0.49301  Biso   1.000  O
  O94      1.0000 0.36467  0.48755  0.66269  Biso   1.000  O
  O95      1.0000 0.10856  0.75657  0.93656  Biso   1.000  O
  O96      1.0000 0.93832  0.04957  0.10623  Biso   1.000  O
  O97      1.0000 0.23277  0.75657  0.93656  Biso   1.000  O
  O98      1.0000 0.93822  0.92769  0.22792  Biso   1.000  O
  O99      1.0000 0.23377  0.75700  0.10623  Biso   1.000  O
  O100     1.0000 0.93732  0.04915  0.93656  Biso   1.000  O
  O101     1.0000 0.11028  0.75730  0.22792  Biso   1.000  O
  O102     1.0000 0.93649  0.92696  0.93656  Biso   1.000  O
  O103     1.0000 0.93707  0.75730  0.22792  Biso   1.000  O
  O104     1.0000 0.11052  0.04915  0.93656  Biso   1.000  O
  O105     1.0000 0.93635  0.75700  0.10623  Biso   1.000  O
  O106     1.0000 0.23392  0.92696  0.93656  Biso   1.000  O
