data_image0
_cell_length_a       18.3149
_cell_length_b       18.3149
_cell_length_c       18.3149
_cell_angle_alpha    60.3295
_cell_angle_beta     60.3295
_cell_angle_gamma    60.3295

_symmetry_space_group_name_H-M    "P 1"
_symmetry_int_tables_number       1

loop_
  _symmetry_equiv_pos_as_xyz
  'x, y, z'

loop_
  _atom_site_label
  _atom_site_occupancy
  _atom_site_fract_x
  _atom_site_fract_y
  _atom_site_fract_z
  _atom_site_thermal_displace_type
  _atom_site_B_iso_or_equiv
  _atom_site_type_symbol
  C1       1.0000 0.20609  0.20609  0.20609  Biso   1.000  C
  C2       1.0000 0.79391  0.79391  0.79391  Biso   1.000  C
  C3       1.0000 0.20677  0.37952  0.20677  Biso   1.000  C
  C4       1.0000 0.20677  0.20677  0.37952  Biso   1.000  C
  C5       1.0000 0.37952  0.20677  0.20677  Biso   1.000  C
  C6       1.0000 0.62048  0.79323  0.79323  Biso   1.000  C
  C7       1.0000 0.79323  0.79323  0.62048  Biso   1.000  C
  C8       1.0000 0.79323  0.62048  0.79323  Biso   1.000  C
  C9       1.0000 0.04260  0.34350  0.56530  Biso   1.000  C
  C10      1.0000 0.56530  0.04260  0.34350  Biso   1.000  C
  C11      1.0000 0.34350  0.56530  0.04260  Biso   1.000  C
  C12      1.0000 0.65650  0.95740  0.43470  Biso   1.000  C
  C13      1.0000 0.95740  0.43470  0.65650  Biso   1.000  C
  C14      1.0000 0.43470  0.65650  0.95740  Biso   1.000  C
  C15      1.0000 0.95740  0.65650  0.43470  Biso   1.000  C
  C16      1.0000 0.43470  0.95740  0.65650  Biso   1.000  C
  C17      1.0000 0.65650  0.43470  0.95740  Biso   1.000  C
  C18      1.0000 0.34350  0.04260  0.56530  Biso   1.000  C
  C19      1.0000 0.04260  0.56530  0.34350  Biso   1.000  C
  C20      1.0000 0.56530  0.34350  0.04260  Biso   1.000  C
  C21      1.0000 0.04880  0.55860  0.04880  Biso   1.000  C
  C22      1.0000 0.04170  0.34450  0.04170  Biso   1.000  C
  C23      1.0000 0.04880  0.04880  0.55860  Biso   1.000  C
  C24      1.0000 0.04170  0.04170  0.34450  Biso   1.000  C
  C25      1.0000 0.55860  0.04880  0.04880  Biso   1.000  C
  C26      1.0000 0.34450  0.04170  0.04170  Biso   1.000  C
  C27      1.0000 0.44140  0.95120  0.95120  Biso   1.000  C
  C28      1.0000 0.65550  0.95830  0.95830  Biso   1.000  C
  C29      1.0000 0.95120  0.95120  0.44140  Biso   1.000  C
  C30      1.0000 0.95830  0.95830  0.65550  Biso   1.000  C
  C31      1.0000 0.95120  0.44140  0.95120  Biso   1.000  C
  C32      1.0000 0.95830  0.65550  0.95830  Biso   1.000  C
  C33      1.0000 0.02770  0.40510  0.53870  Biso   1.000  C
  C34      1.0000 0.53870  0.02770  0.40510  Biso   1.000  C
  C35      1.0000 0.40510  0.53870  0.02770  Biso   1.000  C
  C36      1.0000 0.59490  0.97230  0.46130  Biso   1.000  C
  C37      1.0000 0.97230  0.46130  0.59490  Biso   1.000  C
  C38      1.0000 0.46130  0.59490  0.97230  Biso   1.000  C
  C39      1.0000 0.97230  0.59490  0.46130  Biso   1.000  C
  C40      1.0000 0.46130  0.97230  0.59490  Biso   1.000  C
  C41      1.0000 0.59490  0.46130  0.97230  Biso   1.000  C
  C42      1.0000 0.40510  0.02770  0.53870  Biso   1.000  C
  C43      1.0000 0.02770  0.53870  0.40510  Biso   1.000  C
  C44      1.0000 0.53870  0.40510  0.02770  Biso   1.000  C
  C45      1.0000 0.11130  0.39010  0.11130  Biso   1.000  C
  C46      1.0000 0.05390  0.44400  0.05390  Biso   1.000  C
  C47      1.0000 0.02940  0.53530  0.02940  Biso   1.000  C
  C48      1.0000 0.02520  0.40600  0.02520  Biso   1.000  C
  C49      1.0000 0.11130  0.11130  0.39010  Biso   1.000  C
  C50      1.0000 0.05390  0.05390  0.44400  Biso   1.000  C
  C51      1.0000 0.02940  0.02940  0.53530  Biso   1.000  C
  C52      1.0000 0.02520  0.02520  0.40600  Biso   1.000  C
  C53      1.0000 0.39010  0.11130  0.11130  Biso   1.000  C
  C54      1.0000 0.44400  0.05390  0.05390  Biso   1.000  C
  C55      1.0000 0.53530  0.02940  0.02940  Biso   1.000  C
  C56      1.0000 0.40600  0.02520  0.02520  Biso   1.000  C
  C57      1.0000 0.60990  0.88870  0.88870  Biso   1.000  C
  C58      1.0000 0.55600  0.94610  0.94610  Biso   1.000  C
  C59      1.0000 0.46470  0.97060  0.97060  Biso   1.000  C
  C60      1.0000 0.59400  0.97480  0.97480  Biso   1.000  C
  C61      1.0000 0.88870  0.88870  0.60990  Biso   1.000  C
  C62      1.0000 0.94610  0.94610  0.55600  Biso   1.000  C
  C63      1.0000 0.97060  0.97060  0.46470  Biso   1.000  C
  C64      1.0000 0.97480  0.97480  0.59400  Biso   1.000  C
  C65      1.0000 0.88870  0.60990  0.88870  Biso   1.000  C
  C66      1.0000 0.94610  0.55600  0.94610  Biso   1.000  C
  C67      1.0000 0.97060  0.46470  0.97060  Biso   1.000  C
  C68      1.0000 0.97480  0.59400  0.97480  Biso   1.000  C
  C69      1.0000 0.11170  0.38940  0.38940  Biso   1.000  C
  C70      1.0000 0.05990  0.44245  0.44245  Biso   1.000  C
  C71      1.0000 0.38940  0.11170  0.38940  Biso   1.000  C
  C72      1.0000 0.44245  0.05990  0.44245  Biso   1.000  C
  C73      1.0000 0.38940  0.38940  0.11170  Biso   1.000  C
  C74      1.0000 0.44245  0.44245  0.05990  Biso   1.000  C
  C75      1.0000 0.61060  0.88830  0.61060  Biso   1.000  C
  C76      1.0000 0.55755  0.94010  0.55755  Biso   1.000  C
  C77      1.0000 0.88830  0.61060  0.61060  Biso   1.000  C
  C78      1.0000 0.94010  0.55755  0.55755  Biso   1.000  C
  C79      1.0000 0.61060  0.61060  0.88830  Biso   1.000  C
  C80      1.0000 0.55755  0.55755  0.94010  Biso   1.000  C
  C81      1.0000 0.13529  0.42759  0.30119  Biso   1.000  C
  C82      1.0000 0.30119  0.13529  0.42759  Biso   1.000  C
  C83      1.0000 0.42759  0.30119  0.13529  Biso   1.000  C
  C84      1.0000 0.57241  0.86471  0.69881  Biso   1.000  C
  C85      1.0000 0.86471  0.69881  0.57241  Biso   1.000  C
  C86      1.0000 0.69881  0.57241  0.86471  Biso   1.000  C
  C87      1.0000 0.86471  0.57241  0.69881  Biso   1.000  C
  C88      1.0000 0.69881  0.86471  0.57241  Biso   1.000  C
  C89      1.0000 0.57241  0.69881  0.86471  Biso   1.000  C
  C90      1.0000 0.42759  0.13529  0.30119  Biso   1.000  C
  C91      1.0000 0.13529  0.30119  0.42759  Biso   1.000  C
  C92      1.0000 0.30119  0.42759  0.13529  Biso   1.000  C
  C93      1.0000 0.25153  0.25153  0.25153  Biso   1.000  C
  C94      1.0000 0.74847  0.74847  0.74847  Biso   1.000  C
  C95      1.0000 0.13410  0.30220  0.13410  Biso   1.000  C
  C96      1.0000 0.13380  0.42820  0.13380  Biso   1.000  C
  C97      1.0000 0.13410  0.13410  0.30220  Biso   1.000  C
  C98      1.0000 0.13380  0.13380  0.42820  Biso   1.000  C
  C99      1.0000 0.30220  0.13410  0.13410  Biso   1.000  C
  C100     1.0000 0.42820  0.13380  0.13380  Biso   1.000  C
  C101     1.0000 0.69780  0.86590  0.86590  Biso   1.000  C
  C102     1.0000 0.57180  0.86620  0.86620  Biso   1.000  C
  C103     1.0000 0.86590  0.86590  0.69780  Biso   1.000  C
  C104     1.0000 0.86620  0.86620  0.57180  Biso   1.000  C
  C105     1.0000 0.86590  0.69780  0.86590  Biso   1.000  C
  C106     1.0000 0.86620  0.57180  0.86620  Biso   1.000  C
  O1       1.0000 1.00000  1.00000  1.00000  Biso   1.000  O
  O2       1.0000 0.00475  0.00202  0.80306  Biso   1.000  O
  O3       1.0000 0.00543  0.80640  1.00000  Biso   1.000  O
  O4       1.0000 0.81977  1.00000  1.00000  Biso   1.000  O
  O5       1.0000 0.41598  0.40464  0.56987  Biso   1.000  O
  O6       1.0000 0.41498  0.40422  0.40154  Biso   1.000  O
  O7       1.0000 0.58681  0.40422  0.40154  Biso   1.000  O
  O8       1.0000 0.41612  0.57325  0.40154  Biso   1.000  O
  O9       1.0000 0.25295  0.24474  0.74913  Biso   1.000  O
  O10      1.0000 0.25173  0.24422  0.54164  Biso   1.000  O
  O11      1.0000 0.76981  0.54450  0.24186  Biso   1.000  O
  O12      1.0000 0.55940  0.75286  0.24186  Biso   1.000  O
  O13      1.0000 0.25515  0.75361  0.54164  Biso   1.000  O
  O14      1.0000 0.25498  0.54577  0.74913  Biso   1.000  O
  O15      1.0000 0.76779  0.24347  0.24186  Biso   1.000  O
  O16      1.0000 0.55597  0.24347  0.24186  Biso   1.000  O
  O17      1.0000 0.25198  0.54450  0.24186  Biso   1.000  O
  O18      1.0000 0.25338  0.75286  0.24186  Biso   1.000  O
  O19      1.0000 0.76956  0.24422  0.54164  Biso   1.000  O
  O20      1.0000 0.55897  0.24474  0.74913  Biso   1.000  O
  O21      1.0000 0.18591  0.17915  0.77235  Biso   1.000  O
  O22      1.0000 0.23612  0.22838  0.72106  Biso   1.000  O
  O23      1.0000 0.18518  0.17884  0.64917  Biso   1.000  O
  O24      1.0000 0.23541  0.22808  0.60216  Biso   1.000  O
  O25      1.0000 0.79385  0.65232  0.17648  Biso   1.000  O
  O26      1.0000 0.74147  0.60523  0.22563  Biso   1.000  O
  O27      1.0000 0.66894  0.77601  0.17648  Biso   1.000  O
  O28      1.0000 0.62089  0.72463  0.22563  Biso   1.000  O
  O29      1.0000 0.18921  0.77720  0.64917  Biso   1.000  O
  O30      1.0000 0.23876  0.72557  0.60216  Biso   1.000  O
  O31      1.0000 0.18911  0.65382  0.77235  Biso   1.000  O
  O32      1.0000 0.23866  0.60647  0.72106  Biso   1.000  O
  O33      1.0000 0.79066  0.17766  0.17648  Biso   1.000  O
  O34      1.0000 0.73892  0.22714  0.22563  Biso   1.000  O
  O35      1.0000 0.66492  0.17766  0.17648  Biso   1.000  O
  O36      1.0000 0.61755  0.22714  0.22563  Biso   1.000  O
  O37      1.0000 0.18558  0.65232  0.17648  Biso   1.000  O
  O38      1.0000 0.23573  0.60523  0.22563  Biso   1.000  O
  O39      1.0000 0.18641  0.77601  0.17648  Biso   1.000  O
  O40      1.0000 0.23653  0.72463  0.22563  Biso   1.000  O
  O41      1.0000 0.79345  0.17884  0.64917  Biso   1.000  O
  O42      1.0000 0.74115  0.22808  0.60216  Biso   1.000  O
  O43      1.0000 0.66844  0.17915  0.77235  Biso   1.000  O
  O44      1.0000 0.62048  0.22838  0.72106  Biso   1.000  O
  O45      1.0000 0.09772  0.09288  0.79673  Biso   1.000  O
  O46      1.0000 0.16123  0.15516  0.73456  Biso   1.000  O
  O47      1.0000 0.31794  0.30880  0.58117  Biso   1.000  O
  O48      1.0000 0.26782  0.25966  0.63023  Biso   1.000  O
  O49      1.0000 0.81923  0.80028  0.09051  Biso   1.000  O
  O50      1.0000 0.75571  0.73800  0.15268  Biso   1.000  O
  O51      1.0000 0.59900  0.58436  0.30607  Biso   1.000  O
  O52      1.0000 0.64912  0.63350  0.25701  Biso   1.000  O
  O53      1.0000 0.10249  0.80205  0.79673  Biso   1.000  O
  O54      1.0000 0.16516  0.73947  0.73456  Biso   1.000  O
  O55      1.0000 0.31980  0.58505  0.58117  Biso   1.000  O
  O56      1.0000 0.27034  0.63444  0.63023  Biso   1.000  O
  O57      1.0000 0.81446  0.09111  0.09051  Biso   1.000  O
  O58      1.0000 0.75178  0.15370  0.15268  Biso   1.000  O
  O59      1.0000 0.59715  0.30811  0.30607  Biso   1.000  O
  O60      1.0000 0.64660  0.25873  0.25701  Biso   1.000  O
  O61      1.0000 0.09831  0.80028  0.09051  Biso   1.000  O
  O62      1.0000 0.16172  0.73800  0.15268  Biso   1.000  O
  O63      1.0000 0.31817  0.58436  0.30607  Biso   1.000  O
  O64      1.0000 0.26814  0.63350  0.25701  Biso   1.000  O
  O65      1.0000 0.81864  0.09288  0.79673  Biso   1.000  O
  O66      1.0000 0.75522  0.15516  0.73456  Biso   1.000  O
  O67      1.0000 0.59877  0.30880  0.58117  Biso   1.000  O
  O68      1.0000 0.64881  0.25966  0.63023  Biso   1.000  O
  O69      1.0000 0.45847  0.44658  0.44362  Biso   1.000  O
  O70      1.0000 0.95650  0.95763  0.95791  Biso   1.000  O
  O71      1.0000 0.07623  0.07163  0.87717  Biso   1.000  O
  O72      1.0000 0.34300  0.33318  0.61566  Biso   1.000  O
  O73      1.0000 0.07553  0.07133  0.75904  Biso   1.000  O
  O74      1.0000 0.34231  0.33288  0.49831  Biso   1.000  O
  O75      1.0000 0.90096  0.76238  0.06914  Biso   1.000  O
  O76      1.0000 0.63379  0.50122  0.33025  Biso   1.000  O
  O77      1.0000 0.78117  0.88099  0.06914  Biso   1.000  O
  O78      1.0000 0.51479  0.61905  0.33025  Biso   1.000  O
  O79      1.0000 0.08099  0.88273  0.75904  Biso   1.000  O
  O80      1.0000 0.34423  0.61947  0.49831  Biso   1.000  O
  O81      1.0000 0.08089  0.76441  0.87717  Biso   1.000  O
  O82      1.0000 0.34414  0.50193  0.61566  Biso   1.000  O
  O83      1.0000 0.89629  0.06960  0.06914  Biso   1.000  O
  O84      1.0000 0.63265  0.33246  0.33025  Biso   1.000  O
  O85      1.0000 0.77571  0.06960  0.06914  Biso   1.000  O
  O86      1.0000 0.51287  0.33246  0.33025  Biso   1.000  O
  O87      1.0000 0.07611  0.76238  0.06914  Biso   1.000  O
  O88      1.0000 0.34245  0.50122  0.33025  Biso   1.000  O
  O89      1.0000 0.07691  0.88099  0.06914  Biso   1.000  O
  O90      1.0000 0.34324  0.61905  0.33025  Biso   1.000  O
  O91      1.0000 0.90038  0.07133  0.75904  Biso   1.000  O
  O92      1.0000 0.63365  0.33288  0.49831  Biso   1.000  O
  O93      1.0000 0.78049  0.07163  0.87717  Biso   1.000  O
  O94      1.0000 0.51455  0.33318  0.61566  Biso   1.000  O
