data_image0
_cell_length_a       18.3149
_cell_length_b       18.3149
_cell_length_c       18.3149
_cell_angle_alpha    60.3295
_cell_angle_beta     60.3295
_cell_angle_gamma    60.3295

_symmetry_space_group_name_H-M    "P 1"
_symmetry_int_tables_number       1

loop_
  _symmetry_equiv_pos_as_xyz
  'x, y, z'

loop_
  _atom_site_label
  _atom_site_occupancy
  _atom_site_fract_x
  _atom_site_fract_y
  _atom_site_fract_z
  _atom_site_thermal_displace_type
  _atom_site_B_iso_or_equiv
  _atom_site_type_symbol
  Zn1      1.0000 0.20609  0.20609  0.20609  Biso   1.000  Zn
  Zn2      1.0000 0.79391  0.79391  0.79391  Biso   1.000  Zn
  Zn3      1.0000 0.20677  0.37952  0.20677  Biso   1.000  Zn
  Zn4      1.0000 0.20677  0.20677  0.37952  Biso   1.000  Zn
  Zn5      1.0000 0.37952  0.20677  0.20677  Biso   1.000  Zn
  Zn6      1.0000 0.62048  0.79323  0.79323  Biso   1.000  Zn
  Zn7      1.0000 0.79323  0.79323  0.62048  Biso   1.000  Zn
  Zn8      1.0000 0.79323  0.62048  0.79323  Biso   1.000  Zn
  H1       1.0000 0.04260  0.34350  0.56530  Biso   1.000  H
  H2       1.0000 0.56530  0.04260  0.34350  Biso   1.000  H
  H3       1.0000 0.34350  0.56530  0.04260  Biso   1.000  H
  H4       1.0000 0.65650  0.95740  0.43470  Biso   1.000  H
  H5       1.0000 0.95740  0.43470  0.65650  Biso   1.000  H
  H6       1.0000 0.43470  0.65650  0.95740  Biso   1.000  H
  H7       1.0000 0.95740  0.65650  0.43470  Biso   1.000  H
  H8       1.0000 0.43470  0.95740  0.65650  Biso   1.000  H
  H9       1.0000 0.65650  0.43470  0.95740  Biso   1.000  H
  H10      1.0000 0.34350  0.04260  0.56530  Biso   1.000  H
  H11      1.0000 0.04260  0.56530  0.34350  Biso   1.000  H
  H12      1.0000 0.56530  0.34350  0.04260  Biso   1.000  H
  H13      1.0000 0.04880  0.55860  0.04880  Biso   1.000  H
  H14      1.0000 0.04170  0.34450  0.04170  Biso   1.000  H
  H15      1.0000 0.04880  0.04880  0.55860  Biso   1.000  H
  H16      1.0000 0.04170  0.04170  0.34450  Biso   1.000  H
  H17      1.0000 0.55860  0.04880  0.04880  Biso   1.000  H
  H18      1.0000 0.34450  0.04170  0.04170  Biso   1.000  H
  H19      1.0000 0.44140  0.95120  0.95120  Biso   1.000  H
  H20      1.0000 0.65550  0.95830  0.95830  Biso   1.000  H
  H21      1.0000 0.95120  0.95120  0.44140  Biso   1.000  H
  H22      1.0000 0.95830  0.95830  0.65550  Biso   1.000  H
  H23      1.0000 0.95120  0.44140  0.95120  Biso   1.000  H
  H24      1.0000 0.95830  0.65550  0.95830  Biso   1.000  H
  C1       1.0000 0.02770  0.40510  0.53870  Biso   1.000  C
  C2       1.0000 0.53870  0.02770  0.40510  Biso   1.000  C
  C3       1.0000 0.40510  0.53870  0.02770  Biso   1.000  C
  C4       1.0000 0.59490  0.97230  0.46130  Biso   1.000  C
  C5       1.0000 0.97230  0.46130  0.59490  Biso   1.000  C
  C6       1.0000 0.46130  0.59490  0.97230  Biso   1.000  C
  C7       1.0000 0.97230  0.59490  0.46130  Biso   1.000  C
  C8       1.0000 0.46130  0.97230  0.59490  Biso   1.000  C
  C9       1.0000 0.59490  0.46130  0.97230  Biso   1.000  C
  C10      1.0000 0.40510  0.02770  0.53870  Biso   1.000  C
  C11      1.0000 0.02770  0.53870  0.40510  Biso   1.000  C
  C12      1.0000 0.53870  0.40510  0.02770  Biso   1.000  C
  C13      1.0000 0.11130  0.39010  0.11130  Biso   1.000  C
  C14      1.0000 0.05390  0.44400  0.05390  Biso   1.000  C
  C15      1.0000 0.02940  0.53530  0.02940  Biso   1.000  C
  C16      1.0000 0.02520  0.40600  0.02520  Biso   1.000  C
  C17      1.0000 0.11130  0.11130  0.39010  Biso   1.000  C
  C18      1.0000 0.05390  0.05390  0.44400  Biso   1.000  C
  C19      1.0000 0.02940  0.02940  0.53530  Biso   1.000  C
  C20      1.0000 0.02520  0.02520  0.40600  Biso   1.000  C
  C21      1.0000 0.39010  0.11130  0.11130  Biso   1.000  C
  C22      1.0000 0.44400  0.05390  0.05390  Biso   1.000  C
  C23      1.0000 0.53530  0.02940  0.02940  Biso   1.000  C
  C24      1.0000 0.40600  0.02520  0.02520  Biso   1.000  C
  C25      1.0000 0.60990  0.88870  0.88870  Biso   1.000  C
  C26      1.0000 0.55600  0.94610  0.94610  Biso   1.000  C
  C27      1.0000 0.46470  0.97060  0.97060  Biso   1.000  C
  C28      1.0000 0.59400  0.97480  0.97480  Biso   1.000  C
  C29      1.0000 0.88870  0.88870  0.60990  Biso   1.000  C
  C30      1.0000 0.94610  0.94610  0.55600  Biso   1.000  C
  C31      1.0000 0.97060  0.97060  0.46470  Biso   1.000  C
  C32      1.0000 0.97480  0.97480  0.59400  Biso   1.000  C
  C33      1.0000 0.88870  0.60990  0.88870  Biso   1.000  C
  C34      1.0000 0.94610  0.55600  0.94610  Biso   1.000  C
  C35      1.0000 0.97060  0.46470  0.97060  Biso   1.000  C
  C36      1.0000 0.97480  0.59400  0.97480  Biso   1.000  C
  C37      1.0000 0.11170  0.38940  0.38940  Biso   1.000  C
  C38      1.0000 0.05990  0.44245  0.44245  Biso   1.000  C
  C39      1.0000 0.38940  0.11170  0.38940  Biso   1.000  C
  C40      1.0000 0.44245  0.05990  0.44245  Biso   1.000  C
  C41      1.0000 0.38940  0.38940  0.11170  Biso   1.000  C
  C42      1.0000 0.44245  0.44245  0.05990  Biso   1.000  C
  C43      1.0000 0.61060  0.88830  0.61060  Biso   1.000  C
  C44      1.0000 0.55755  0.94010  0.55755  Biso   1.000  C
  C45      1.0000 0.88830  0.61060  0.61060  Biso   1.000  C
  C46      1.0000 0.94010  0.55755  0.55755  Biso   1.000  C
  C47      1.0000 0.61060  0.61060  0.88830  Biso   1.000  C
  C48      1.0000 0.55755  0.55755  0.94010  Biso   1.000  C
  O1       1.0000 0.13529  0.42759  0.30119  Biso   1.000  O
  O2       1.0000 0.30119  0.13529  0.42759  Biso   1.000  O
  O3       1.0000 0.42759  0.30119  0.13529  Biso   1.000  O
  O4       1.0000 0.57241  0.86471  0.69881  Biso   1.000  O
  O5       1.0000 0.86471  0.69881  0.57241  Biso   1.000  O
  O6       1.0000 0.69881  0.57241  0.86471  Biso   1.000  O
  O7       1.0000 0.86471  0.57241  0.69881  Biso   1.000  O
  O8       1.0000 0.69881  0.86471  0.57241  Biso   1.000  O
  O9       1.0000 0.57241  0.69881  0.86471  Biso   1.000  O
  O10      1.0000 0.42759  0.13529  0.30119  Biso   1.000  O
  O11      1.0000 0.13529  0.30119  0.42759  Biso   1.000  O
  O12      1.0000 0.30119  0.42759  0.13529  Biso   1.000  O
  O13      1.0000 0.25153  0.25153  0.25153  Biso   1.000  O
  O14      1.0000 0.74847  0.74847  0.74847  Biso   1.000  O
  O15      1.0000 0.13410  0.30220  0.13410  Biso   1.000  O
  O16      1.0000 0.13380  0.42820  0.13380  Biso   1.000  O
  O17      1.0000 0.13410  0.13410  0.30220  Biso   1.000  O
  O18      1.0000 0.13380  0.13380  0.42820  Biso   1.000  O
  O19      1.0000 0.30220  0.13410  0.13410  Biso   1.000  O
  O20      1.0000 0.42820  0.13380  0.13380  Biso   1.000  O
  O21      1.0000 0.69780  0.86590  0.86590  Biso   1.000  O
  O22      1.0000 0.57180  0.86620  0.86620  Biso   1.000  O
  O23      1.0000 0.86590  0.86590  0.69780  Biso   1.000  O
  O24      1.0000 0.86620  0.86620  0.57180  Biso   1.000  O
  O25      1.0000 0.86590  0.69780  0.86590  Biso   1.000  O
  O26      1.0000 0.86620  0.57180  0.86620  Biso   1.000  O
  Zn9      1.0000 0.15033  0.89382  0.88831  Biso   1.000  Zn
  Zn10     1.0000 0.97832  0.89424  0.05780  Biso   1.000  Zn
  Zn11     1.0000 0.97846  0.06401  0.88831  Biso   1.000  Zn
  Zn12     1.0000 0.97732  0.89382  0.88831  Biso   1.000  Zn
  Zn13     1.0000 0.37722  0.48884  0.48602  Biso   1.000  Zn
  Zn14     1.0000 0.54924  0.48841  0.31653  Biso   1.000  Zn
  Zn15     1.0000 0.55024  0.48884  0.48602  Biso   1.000  Zn
  Zn16     1.0000 0.54909  0.31864  0.48602  Biso   1.000  Zn
  H25      1.0000 0.33510  0.73638  0.02127  Biso   1.000  H
  H26      1.0000 0.10264  0.73448  0.26500  Biso   1.000  H
  H27      1.0000 0.80613  0.26752  0.73119  Biso   1.000  H
  H28      1.0000 0.81124  0.02694  0.73119  Biso   1.000  H
  H29      1.0000 0.80848  0.02577  0.26500  Biso   1.000  H
  H30      1.0000 0.80785  0.26824  0.02127  Biso   1.000  H
  H31      1.0000 0.33339  0.73565  0.73119  Biso   1.000  H
  H32      1.0000 0.10540  0.73565  0.73119  Biso   1.000  H
  H33      1.0000 0.10225  0.26752  0.73119  Biso   1.000  H
  H34      1.0000 0.33535  0.02694  0.73119  Biso   1.000  H
  H35      1.0000 0.80652  0.73448  0.26500  Biso   1.000  H
  H36      1.0000 0.81100  0.73638  0.02127  Biso   1.000  H
  H37      1.0000 0.19245  0.64628  0.35306  Biso   1.000  H
  H38      1.0000 0.42492  0.64818  0.10933  Biso   1.000  H
  H39      1.0000 0.71632  0.35572  0.64313  Biso   1.000  H
  H40      1.0000 0.72143  0.11514  0.64313  Biso   1.000  H
  H41      1.0000 0.72103  0.64818  0.10933  Biso   1.000  H
  H42      1.0000 0.71656  0.64628  0.35306  Biso   1.000  H
  H43      1.0000 0.19221  0.35572  0.64313  Biso   1.000  H
  H44      1.0000 0.42531  0.11514  0.64313  Biso   1.000  H
  H45      1.0000 0.42216  0.64701  0.64313  Biso   1.000  H
  H46      1.0000 0.19417  0.64701  0.64313  Biso   1.000  H
  H47      1.0000 0.71907  0.35689  0.10933  Biso   1.000  H
  H48      1.0000 0.71971  0.11441  0.35306  Biso   1.000  H
  C49      1.0000 0.30880  0.71805  0.08410  Biso   1.000  C
  C50      1.0000 0.16649  0.71593  0.23899  Biso   1.000  C
  C51      1.0000 0.78705  0.24135  0.71278  Biso   1.000  C
  C52      1.0000 0.79276  0.08998  0.71278  Biso   1.000  C
  C53      1.0000 0.78996  0.08879  0.23899  Biso   1.000  C
  C54      1.0000 0.78925  0.24229  0.08410  Biso   1.000  C
  C55      1.0000 0.30661  0.71712  0.71278  Biso   1.000  C
  C56      1.0000 0.16930  0.71712  0.71278  Biso   1.000  C
  C57      1.0000 0.16610  0.24135  0.71278  Biso   1.000  C
  C58      1.0000 0.30912  0.08998  0.71278  Biso   1.000  C
  C59      1.0000 0.78745  0.71593  0.23899  Biso   1.000  C
  C60      1.0000 0.79245  0.71805  0.08410  Biso   1.000  C
  C61      1.0000 0.21875  0.66461  0.29023  Biso   1.000  C
  C62      1.0000 0.36106  0.66673  0.13533  Biso   1.000  C
  C63      1.0000 0.73479  0.29267  0.66154  Biso   1.000  C
  C64      1.0000 0.74050  0.14130  0.66154  Biso   1.000  C
  C65      1.0000 0.74011  0.66673  0.13533  Biso   1.000  C
  C66      1.0000 0.73511  0.66461  0.29023  Biso   1.000  C
  C67      1.0000 0.21844  0.29267  0.66154  Biso   1.000  C
  C68      1.0000 0.36146  0.14130  0.66154  Biso   1.000  C
  C69      1.0000 0.35826  0.66554  0.66154  Biso   1.000  C
  C70      1.0000 0.22095  0.66554  0.66154  Biso   1.000  C
  C71      1.0000 0.73760  0.29386  0.13533  Biso   1.000  C
  C72      1.0000 0.73831  0.14037  0.29023  Biso   1.000  C
  C73      1.0000 0.15970  0.80036  0.06656  Biso   1.000  C
  C74      1.0000 0.21604  0.74504  0.12179  Biso   1.000  C
  C75      1.0000 0.88251  0.07258  0.79480  Biso   1.000  C
  C76      1.0000 0.82618  0.12790  0.73957  Biso   1.000  C
  C77      1.0000 0.88412  0.07326  0.06656  Biso   1.000  C
  C78      1.0000 0.82844  0.12886  0.12179  Biso   1.000  C
  C79      1.0000 0.15810  0.79968  0.79480  Biso   1.000  C
  C80      1.0000 0.21378  0.74408  0.73957  Biso   1.000  C
  C81      1.0000 0.15993  0.07258  0.79480  Biso   1.000  C
  C82      1.0000 0.21636  0.12790  0.73957  Biso   1.000  C
  C83      1.0000 0.88228  0.80036  0.06656  Biso   1.000  C
  C84      1.0000 0.82586  0.74504  0.12179  Biso   1.000  C
  C85      1.0000 0.36785  0.58229  0.30776  Biso   1.000  C
  C86      1.0000 0.31152  0.63761  0.25253  Biso   1.000  C
  C87      1.0000 0.64505  0.31008  0.57953  Biso   1.000  C
  C88      1.0000 0.70138  0.25475  0.63476  Biso   1.000  C
  C89      1.0000 0.64527  0.58229  0.30776  Biso   1.000  C
  C90      1.0000 0.70170  0.63761  0.25253  Biso   1.000  C
  C91      1.0000 0.36762  0.31008  0.57953  Biso   1.000  C
  C92      1.0000 0.31120  0.25475  0.63476  Biso   1.000  C
  C93      1.0000 0.36946  0.58297  0.57953  Biso   1.000  C
  C94      1.0000 0.31378  0.63857  0.63476  Biso   1.000  C
  C95      1.0000 0.64344  0.30939  0.30776  Biso   1.000  C
  C96      1.0000 0.69912  0.25379  0.25253  Biso   1.000  C
  O27      1.0000 0.02111  0.93647  0.93068  Biso   1.000  O
  O28      1.0000 0.50645  0.44618  0.44364  Biso   1.000  O
  O29      1.0000 0.19933  0.82304  0.98182  Biso   1.000  O
  O30      1.0000 0.07358  0.82335  0.10572  Biso   1.000  O
  O31      1.0000 0.90618  0.11196  0.81759  Biso   1.000  O
  O32      1.0000 0.90534  0.98754  0.81759  Biso   1.000  O
  O33      1.0000 0.90705  0.98826  0.10572  Biso   1.000  O
  O34      1.0000 0.90715  0.11237  0.98182  Biso   1.000  O
  O35      1.0000 0.19836  0.82263  0.81759  Biso   1.000  O
  O36      1.0000 0.07188  0.82263  0.81759  Biso   1.000  O
  O37      1.0000 0.07382  0.11196  0.81759  Biso   1.000  O
  O38      1.0000 0.19947  0.98754  0.81759  Biso   1.000  O
  O39      1.0000 0.90594  0.82335  0.10572  Biso   1.000  O
  O40      1.0000 0.90520  0.82304  0.98182  Biso   1.000  O
  O41      1.0000 0.32823  0.55962  0.39251  Biso   1.000  O
  O42      1.0000 0.45397  0.55931  0.26860  Biso   1.000  O
  O43      1.0000 0.62222  0.39512  0.55673  Biso   1.000  O
  O44      1.0000 0.62138  0.27070  0.55673  Biso   1.000  O
  O45      1.0000 0.62162  0.55931  0.26860  Biso   1.000  O
  O46      1.0000 0.62235  0.55962  0.39251  Biso   1.000  O
  O47      1.0000 0.32809  0.39512  0.55673  Biso   1.000  O
  O48      1.0000 0.45373  0.27070  0.55673  Biso   1.000  O
  O49      1.0000 0.45568  0.56003  0.55673  Biso   1.000  O
  O50      1.0000 0.32920  0.56003  0.55673  Biso   1.000  O
  O51      1.0000 0.62051  0.39439  0.26860  Biso   1.000  O
  O52      1.0000 0.62041  0.27028  0.39251  Biso   1.000  O
