data_image0
_cell_length_a       18.3149
_cell_length_b       18.3149
_cell_length_c       18.3149
_cell_angle_alpha    60.3295
_cell_angle_beta     60.3295
_cell_angle_gamma    60.3295

_symmetry_space_group_name_H-M    "P 1"
_symmetry_int_tables_number       1

loop_
  _symmetry_equiv_pos_as_xyz
  'x, y, z'

loop_
  _atom_site_label
  _atom_site_occupancy
  _atom_site_fract_x
  _atom_site_fract_y
  _atom_site_fract_z
  _atom_site_thermal_displace_type
  _atom_site_B_iso_or_equiv
  _atom_site_type_symbol
  C1       1.0000 0.20609  0.20609  0.20609  Biso   1.000  C
  C2       1.0000 0.79391  0.79391  0.79391  Biso   1.000  C
  C3       1.0000 0.20677  0.37952  0.20677  Biso   1.000  C
  C4       1.0000 0.20677  0.20677  0.37952  Biso   1.000  C
  C5       1.0000 0.37952  0.20677  0.20677  Biso   1.000  C
  C6       1.0000 0.62048  0.79323  0.79323  Biso   1.000  C
  C7       1.0000 0.79323  0.79323  0.62048  Biso   1.000  C
  C8       1.0000 0.79323  0.62048  0.79323  Biso   1.000  C
  C9       1.0000 0.04260  0.34350  0.56530  Biso   1.000  C
  C10      1.0000 0.56530  0.04260  0.34350  Biso   1.000  C
  C11      1.0000 0.34350  0.56530  0.04260  Biso   1.000  C
  C12      1.0000 0.65650  0.95740  0.43470  Biso   1.000  C
  C13      1.0000 0.95740  0.43470  0.65650  Biso   1.000  C
  C14      1.0000 0.43470  0.65650  0.95740  Biso   1.000  C
  C15      1.0000 0.95740  0.65650  0.43470  Biso   1.000  C
  C16      1.0000 0.43470  0.95740  0.65650  Biso   1.000  C
  C17      1.0000 0.65650  0.43470  0.95740  Biso   1.000  C
  C18      1.0000 0.34350  0.04260  0.56530  Biso   1.000  C
  C19      1.0000 0.04260  0.56530  0.34350  Biso   1.000  C
  C20      1.0000 0.56530  0.34350  0.04260  Biso   1.000  C
  C21      1.0000 0.04880  0.55860  0.04880  Biso   1.000  C
  C22      1.0000 0.04170  0.34450  0.04170  Biso   1.000  C
  C23      1.0000 0.04880  0.04880  0.55860  Biso   1.000  C
  C24      1.0000 0.04170  0.04170  0.34450  Biso   1.000  C
  C25      1.0000 0.55860  0.04880  0.04880  Biso   1.000  C
  C26      1.0000 0.34450  0.04170  0.04170  Biso   1.000  C
  C27      1.0000 0.44140  0.95120  0.95120  Biso   1.000  C
  C28      1.0000 0.65550  0.95830  0.95830  Biso   1.000  C
  C29      1.0000 0.95120  0.95120  0.44140  Biso   1.000  C
  C30      1.0000 0.95830  0.95830  0.65550  Biso   1.000  C
  C31      1.0000 0.95120  0.44140  0.95120  Biso   1.000  C
  C32      1.0000 0.95830  0.65550  0.95830  Biso   1.000  C
  C33      1.0000 0.02770  0.40510  0.53870  Biso   1.000  C
  C34      1.0000 0.53870  0.02770  0.40510  Biso   1.000  C
  C35      1.0000 0.40510  0.53870  0.02770  Biso   1.000  C
  C36      1.0000 0.59490  0.97230  0.46130  Biso   1.000  C
  C37      1.0000 0.97230  0.46130  0.59490  Biso   1.000  C
  C38      1.0000 0.46130  0.59490  0.97230  Biso   1.000  C
  C39      1.0000 0.97230  0.59490  0.46130  Biso   1.000  C
  C40      1.0000 0.46130  0.97230  0.59490  Biso   1.000  C
  C41      1.0000 0.59490  0.46130  0.97230  Biso   1.000  C
  C42      1.0000 0.40510  0.02770  0.53870  Biso   1.000  C
  C43      1.0000 0.02770  0.53870  0.40510  Biso   1.000  C
  C44      1.0000 0.53870  0.40510  0.02770  Biso   1.000  C
  C45      1.0000 0.11130  0.39010  0.11130  Biso   1.000  C
  C46      1.0000 0.05390  0.44400  0.05390  Biso   1.000  C
  C47      1.0000 0.02940  0.53530  0.02940  Biso   1.000  C
  C48      1.0000 0.02520  0.40600  0.02520  Biso   1.000  C
  C49      1.0000 0.11130  0.11130  0.39010  Biso   1.000  C
  C50      1.0000 0.05390  0.05390  0.44400  Biso   1.000  C
  C51      1.0000 0.02940  0.02940  0.53530  Biso   1.000  C
  C52      1.0000 0.02520  0.02520  0.40600  Biso   1.000  C
  C53      1.0000 0.39010  0.11130  0.11130  Biso   1.000  C
  C54      1.0000 0.44400  0.05390  0.05390  Biso   1.000  C
  C55      1.0000 0.53530  0.02940  0.02940  Biso   1.000  C
  C56      1.0000 0.40600  0.02520  0.02520  Biso   1.000  C
  C57      1.0000 0.60990  0.88870  0.88870  Biso   1.000  C
  C58      1.0000 0.55600  0.94610  0.94610  Biso   1.000  C
  C59      1.0000 0.46470  0.97060  0.97060  Biso   1.000  C
  C60      1.0000 0.59400  0.97480  0.97480  Biso   1.000  C
  C61      1.0000 0.88870  0.88870  0.60990  Biso   1.000  C
  C62      1.0000 0.94610  0.94610  0.55600  Biso   1.000  C
  C63      1.0000 0.97060  0.97060  0.46470  Biso   1.000  C
  C64      1.0000 0.97480  0.97480  0.59400  Biso   1.000  C
  C65      1.0000 0.88870  0.60990  0.88870  Biso   1.000  C
  C66      1.0000 0.94610  0.55600  0.94610  Biso   1.000  C
  C67      1.0000 0.97060  0.46470  0.97060  Biso   1.000  C
  C68      1.0000 0.97480  0.59400  0.97480  Biso   1.000  C
  C69      1.0000 0.11170  0.38940  0.38940  Biso   1.000  C
  C70      1.0000 0.05990  0.44245  0.44245  Biso   1.000  C
  C71      1.0000 0.38940  0.11170  0.38940  Biso   1.000  C
  C72      1.0000 0.44245  0.05990  0.44245  Biso   1.000  C
  C73      1.0000 0.38940  0.38940  0.11170  Biso   1.000  C
  C74      1.0000 0.44245  0.44245  0.05990  Biso   1.000  C
  C75      1.0000 0.61060  0.88830  0.61060  Biso   1.000  C
  C76      1.0000 0.55755  0.94010  0.55755  Biso   1.000  C
  C77      1.0000 0.88830  0.61060  0.61060  Biso   1.000  C
  C78      1.0000 0.94010  0.55755  0.55755  Biso   1.000  C
  C79      1.0000 0.61060  0.61060  0.88830  Biso   1.000  C
  C80      1.0000 0.55755  0.55755  0.94010  Biso   1.000  C
  C81      1.0000 0.13529  0.42759  0.30119  Biso   1.000  C
  C82      1.0000 0.30119  0.13529  0.42759  Biso   1.000  C
  C83      1.0000 0.42759  0.30119  0.13529  Biso   1.000  C
  C84      1.0000 0.57241  0.86471  0.69881  Biso   1.000  C
  C85      1.0000 0.86471  0.69881  0.57241  Biso   1.000  C
  C86      1.0000 0.69881  0.57241  0.86471  Biso   1.000  C
  C87      1.0000 0.86471  0.57241  0.69881  Biso   1.000  C
  C88      1.0000 0.69881  0.86471  0.57241  Biso   1.000  C
  C89      1.0000 0.57241  0.69881  0.86471  Biso   1.000  C
  C90      1.0000 0.42759  0.13529  0.30119  Biso   1.000  C
  C91      1.0000 0.13529  0.30119  0.42759  Biso   1.000  C
  C92      1.0000 0.30119  0.42759  0.13529  Biso   1.000  C
  C93      1.0000 0.25153  0.25153  0.25153  Biso   1.000  C
  C94      1.0000 0.74847  0.74847  0.74847  Biso   1.000  C
  C95      1.0000 0.13410  0.30220  0.13410  Biso   1.000  C
  C96      1.0000 0.13380  0.42820  0.13380  Biso   1.000  C
  C97      1.0000 0.13410  0.13410  0.30220  Biso   1.000  C
  C98      1.0000 0.13380  0.13380  0.42820  Biso   1.000  C
  C99      1.0000 0.30220  0.13410  0.13410  Biso   1.000  C
  C100     1.0000 0.42820  0.13380  0.13380  Biso   1.000  C
  C101     1.0000 0.69780  0.86590  0.86590  Biso   1.000  C
  C102     1.0000 0.57180  0.86620  0.86620  Biso   1.000  C
  C103     1.0000 0.86590  0.86590  0.69780  Biso   1.000  C
  C104     1.0000 0.86620  0.86620  0.57180  Biso   1.000  C
  C105     1.0000 0.86590  0.69780  0.86590  Biso   1.000  C
  C106     1.0000 0.86620  0.57180  0.86620  Biso   1.000  C
  O1       1.0000 0.58775  0.23710  0.59241  Biso   1.000  O
  O2       1.0000 0.58894  0.41339  0.59241  Biso   1.000  O
  O3       1.0000 0.40972  0.41339  0.59241  Biso   1.000  O
  O4       1.0000 0.58790  0.41295  0.41685  Biso   1.000  O
  O5       1.0000 0.00899  0.82635  0.00925  Biso   1.000  O
  O6       1.0000 0.01017  0.00264  0.00925  Biso   1.000  O
  O7       1.0000 0.18820  0.82635  0.00925  Biso   1.000  O
  O8       1.0000 0.01003  0.82679  0.18481  Biso   1.000  O
  O9       1.0000 0.43954  0.05932  0.75360  Biso   1.000  O
  O10      1.0000 0.75372  0.57490  0.44746  Biso   1.000  O
  O11      1.0000 0.22856  0.26825  0.75360  Biso   1.000  O
  O12      1.0000 0.75249  0.57437  0.23940  Biso   1.000  O
  O13      1.0000 0.22882  0.57490  0.44746  Biso   1.000  O
  O14      1.0000 0.75346  0.26825  0.75360  Biso   1.000  O
  O15      1.0000 0.43998  0.57437  0.23940  Biso   1.000  O
  O16      1.0000 0.75206  0.05932  0.75360  Biso   1.000  O
  O17      1.0000 0.75042  0.26696  0.23940  Biso   1.000  O
  O18      1.0000 0.44302  0.57566  0.75360  Biso   1.000  O
  O19      1.0000 0.75024  0.05856  0.44746  Biso   1.000  O
  O20      1.0000 0.23063  0.57566  0.75360  Biso   1.000  O
  O21      1.0000 0.15491  0.66407  0.84806  Biso   1.000  O
  O22      1.0000 0.84768  0.18118  0.15420  Biso   1.000  O
  O23      1.0000 0.36729  0.66407  0.84806  Biso   1.000  O
  O24      1.0000 0.84751  0.97278  0.36226  Biso   1.000  O
  O25      1.0000 0.36910  0.66484  0.15420  Biso   1.000  O
  O26      1.0000 0.84587  0.18042  0.84806  Biso   1.000  O
  O27      1.0000 0.15795  0.66537  0.36226  Biso   1.000  O
  O28      1.0000 0.84446  0.97149  0.84806  Biso   1.000  O
  O29      1.0000 0.84544  0.66537  0.36226  Biso   1.000  O
  O30      1.0000 0.15838  0.18042  0.84806  Biso   1.000  O
  O31      1.0000 0.84421  0.66484  0.15420  Biso   1.000  O
  O32      1.0000 0.36936  0.97149  0.84806  Biso   1.000  O
  O33      1.0000 0.38679  0.08204  0.76826  Biso   1.000  O
  O34      1.0000 0.76848  0.58949  0.39554  Biso   1.000  O
  O35      1.0000 0.25136  0.21615  0.76826  Biso   1.000  O
  O36      1.0000 0.76769  0.58915  0.26199  Biso   1.000  O
  O37      1.0000 0.25167  0.58949  0.39555  Biso   1.000  O
  O38      1.0000 0.76816  0.21615  0.76826  Biso   1.000  O
  O39      1.0000 0.38721  0.58915  0.26199  Biso   1.000  O
  O40      1.0000 0.76726  0.08204  0.76826  Biso   1.000  O
  O41      1.0000 0.76517  0.21488  0.26199  Biso   1.000  O
  O42      1.0000 0.39021  0.59043  0.76826  Biso   1.000  O
  O43      1.0000 0.76506  0.08111  0.39554  Biso   1.000  O
  O44      1.0000 0.25388  0.59043  0.76826  Biso   1.000  O
  O45      1.0000 0.20772  0.64931  0.83339  Biso   1.000  O
  O46      1.0000 0.83287  0.15863  0.20611  Biso   1.000  O
  O47      1.0000 0.34405  0.64931  0.83339  Biso   1.000  O
  O48      1.0000 0.83275  0.02486  0.33967  Biso   1.000  O
  O49      1.0000 0.34625  0.65025  0.20611  Biso   1.000  O
  O50      1.0000 0.83066  0.15770  0.83339  Biso   1.000  O
  O51      1.0000 0.21071  0.65058  0.33967  Biso   1.000  O
  O52      1.0000 0.82976  0.02359  0.83339  Biso   1.000  O
  O53      1.0000 0.83024  0.65058  0.33967  Biso   1.000  O
  O54      1.0000 0.21114  0.15770  0.83339  Biso   1.000  O
  O55      1.0000 0.82945  0.65025  0.20611  Biso   1.000  O
  O56      1.0000 0.34657  0.02359  0.83339  Biso   1.000  O
  O57      1.0000 0.40653  0.23484  0.68266  Biso   1.000  O
  O58      1.0000 0.34529  0.17480  0.74260  Biso   1.000  O
  O59      1.0000 0.68063  0.50358  0.41437  Biso   1.000  O
  O60      1.0000 0.74187  0.56362  0.35443  Biso   1.000  O
  O61      1.0000 0.40675  0.50358  0.41437  Biso   1.000  O
  O62      1.0000 0.34561  0.56362  0.35443  Biso   1.000  O
  O63      1.0000 0.68040  0.23484  0.68266  Biso   1.000  O
  O64      1.0000 0.74154  0.17480  0.74260  Biso   1.000  O
  O65      1.0000 0.67882  0.23417  0.41437  Biso   1.000  O
  O66      1.0000 0.73924  0.17383  0.35443  Biso   1.000  O
  O67      1.0000 0.40834  0.50425  0.68266  Biso   1.000  O
  O68      1.0000 0.34791  0.56459  0.74260  Biso   1.000  O
  O69      1.0000 0.18958  0.73549  0.91900  Biso   1.000  O
  O70      1.0000 0.25001  0.67515  0.85906  Biso   1.000  O
  O71      1.0000 0.91911  0.00557  0.18729  Biso   1.000  O
  O72      1.0000 0.85868  0.06591  0.24723  Biso   1.000  O
  O73      1.0000 0.19117  0.73616  0.18729  Biso   1.000  O
  O74      1.0000 0.25231  0.67612  0.24723  Biso   1.000  O
  O75      1.0000 0.91752  0.00490  0.91900  Biso   1.000  O
  O76      1.0000 0.85638  0.06494  0.85906  Biso   1.000  O
  O77      1.0000 0.91729  0.73616  0.18729  Biso   1.000  O
  O78      1.0000 0.85606  0.67612  0.24723  Biso   1.000  O
  O79      1.0000 0.19140  0.00490  0.91900  Biso   1.000  O
  O80      1.0000 0.25264  0.06494  0.85906  Biso   1.000  O
  O81      1.0000 0.54358  0.36921  0.54852  Biso   1.000  O
  O82      1.0000 0.05435  0.87053  0.05314  Biso   1.000  O
  O83      1.0000 0.48885  0.19122  0.66384  Biso   1.000  O
  O84      1.0000 0.66177  0.48488  0.49541  Biso   1.000  O
  O85      1.0000 0.36266  0.31617  0.66384  Biso   1.000  O
  O86      1.0000 0.66103  0.48457  0.37097  Biso   1.000  O
  O87      1.0000 0.36281  0.48488  0.49541  Biso   1.000  O
  O88      1.0000 0.66162  0.31617  0.66384  Biso   1.000  O
  O89      1.0000 0.48910  0.48457  0.37097  Biso   1.000  O
  O90      1.0000 0.66078  0.19122  0.66384  Biso   1.000  O
  O91      1.0000 0.65989  0.31544  0.37097  Biso   1.000  O
  O92      1.0000 0.49083  0.48530  0.66384  Biso   1.000  O
  O93      1.0000 0.65979  0.19080  0.49541  Biso   1.000  O
  O94      1.0000 0.36380  0.48530  0.66384  Biso   1.000  O
  O95      1.0000 0.10709  0.75444  0.93782  Biso   1.000  O
  O96      1.0000 0.93814  0.04894  0.10625  Biso   1.000  O
  O97      1.0000 0.23412  0.75444  0.93782  Biso   1.000  O
  O98      1.0000 0.93803  0.92430  0.23068  Biso   1.000  O
  O99      1.0000 0.23512  0.75486  0.10625  Biso   1.000  O
  O100     1.0000 0.93714  0.04852  0.93782  Biso   1.000  O
  O101     1.0000 0.10883  0.75517  0.23068  Biso   1.000  O
  O102     1.0000 0.93630  0.92356  0.93782  Biso   1.000  O
  O103     1.0000 0.93689  0.75517  0.23068  Biso   1.000  O
  O104     1.0000 0.10907  0.04852  0.93782  Biso   1.000  O
  O105     1.0000 0.93616  0.75486  0.10625  Biso   1.000  O
  O106     1.0000 0.23526  0.92356  0.93782  Biso   1.000  O
