data_image0
_cell_length_a       18.3149
_cell_length_b       18.3149
_cell_length_c       18.3149
_cell_angle_alpha    60.3295
_cell_angle_beta     60.3295
_cell_angle_gamma    60.3295

_symmetry_space_group_name_H-M    "P 1"
_symmetry_int_tables_number       1

loop_
  _symmetry_equiv_pos_as_xyz
  'x, y, z'

loop_
  _atom_site_label
  _atom_site_occupancy
  _atom_site_fract_x
  _atom_site_fract_y
  _atom_site_fract_z
  _atom_site_thermal_displace_type
  _atom_site_B_iso_or_equiv
  _atom_site_type_symbol
  C1       1.0000 0.20609  0.20609  0.20609  Biso   1.000  C
  C2       1.0000 0.79391  0.79391  0.79391  Biso   1.000  C
  C3       1.0000 0.20677  0.37952  0.20677  Biso   1.000  C
  C4       1.0000 0.20677  0.20677  0.37952  Biso   1.000  C
  C5       1.0000 0.37952  0.20677  0.20677  Biso   1.000  C
  C6       1.0000 0.62048  0.79323  0.79323  Biso   1.000  C
  C7       1.0000 0.79323  0.79323  0.62048  Biso   1.000  C
  C8       1.0000 0.79323  0.62048  0.79323  Biso   1.000  C
  C9       1.0000 0.04260  0.34350  0.56530  Biso   1.000  C
  C10      1.0000 0.56530  0.04260  0.34350  Biso   1.000  C
  C11      1.0000 0.34350  0.56530  0.04260  Biso   1.000  C
  C12      1.0000 0.65650  0.95740  0.43470  Biso   1.000  C
  C13      1.0000 0.95740  0.43470  0.65650  Biso   1.000  C
  C14      1.0000 0.43470  0.65650  0.95740  Biso   1.000  C
  C15      1.0000 0.95740  0.65650  0.43470  Biso   1.000  C
  C16      1.0000 0.43470  0.95740  0.65650  Biso   1.000  C
  C17      1.0000 0.65650  0.43470  0.95740  Biso   1.000  C
  C18      1.0000 0.34350  0.04260  0.56530  Biso   1.000  C
  C19      1.0000 0.04260  0.56530  0.34350  Biso   1.000  C
  C20      1.0000 0.56530  0.34350  0.04260  Biso   1.000  C
  C21      1.0000 0.04880  0.55860  0.04880  Biso   1.000  C
  C22      1.0000 0.04170  0.34450  0.04170  Biso   1.000  C
  C23      1.0000 0.04880  0.04880  0.55860  Biso   1.000  C
  C24      1.0000 0.04170  0.04170  0.34450  Biso   1.000  C
  C25      1.0000 0.55860  0.04880  0.04880  Biso   1.000  C
  C26      1.0000 0.34450  0.04170  0.04170  Biso   1.000  C
  C27      1.0000 0.44140  0.95120  0.95120  Biso   1.000  C
  C28      1.0000 0.65550  0.95830  0.95830  Biso   1.000  C
  C29      1.0000 0.95120  0.95120  0.44140  Biso   1.000  C
  C30      1.0000 0.95830  0.95830  0.65550  Biso   1.000  C
  C31      1.0000 0.95120  0.44140  0.95120  Biso   1.000  C
  C32      1.0000 0.95830  0.65550  0.95830  Biso   1.000  C
  C33      1.0000 0.02770  0.40510  0.53870  Biso   1.000  C
  C34      1.0000 0.53870  0.02770  0.40510  Biso   1.000  C
  C35      1.0000 0.40510  0.53870  0.02770  Biso   1.000  C
  C36      1.0000 0.59490  0.97230  0.46130  Biso   1.000  C
  C37      1.0000 0.97230  0.46130  0.59490  Biso   1.000  C
  C38      1.0000 0.46130  0.59490  0.97230  Biso   1.000  C
  C39      1.0000 0.97230  0.59490  0.46130  Biso   1.000  C
  C40      1.0000 0.46130  0.97230  0.59490  Biso   1.000  C
  C41      1.0000 0.59490  0.46130  0.97230  Biso   1.000  C
  C42      1.0000 0.40510  0.02770  0.53870  Biso   1.000  C
  C43      1.0000 0.02770  0.53870  0.40510  Biso   1.000  C
  C44      1.0000 0.53870  0.40510  0.02770  Biso   1.000  C
  C45      1.0000 0.11130  0.39010  0.11130  Biso   1.000  C
  C46      1.0000 0.05390  0.44400  0.05390  Biso   1.000  C
  C47      1.0000 0.02940  0.53530  0.02940  Biso   1.000  C
  C48      1.0000 0.02520  0.40600  0.02520  Biso   1.000  C
  C49      1.0000 0.11130  0.11130  0.39010  Biso   1.000  C
  C50      1.0000 0.05390  0.05390  0.44400  Biso   1.000  C
  C51      1.0000 0.02940  0.02940  0.53530  Biso   1.000  C
  C52      1.0000 0.02520  0.02520  0.40600  Biso   1.000  C
  C53      1.0000 0.39010  0.11130  0.11130  Biso   1.000  C
  C54      1.0000 0.44400  0.05390  0.05390  Biso   1.000  C
  C55      1.0000 0.53530  0.02940  0.02940  Biso   1.000  C
  C56      1.0000 0.40600  0.02520  0.02520  Biso   1.000  C
  C57      1.0000 0.60990  0.88870  0.88870  Biso   1.000  C
  C58      1.0000 0.55600  0.94610  0.94610  Biso   1.000  C
  C59      1.0000 0.46470  0.97060  0.97060  Biso   1.000  C
  C60      1.0000 0.59400  0.97480  0.97480  Biso   1.000  C
  C61      1.0000 0.88870  0.88870  0.60990  Biso   1.000  C
  C62      1.0000 0.94610  0.94610  0.55600  Biso   1.000  C
  C63      1.0000 0.97060  0.97060  0.46470  Biso   1.000  C
  C64      1.0000 0.97480  0.97480  0.59400  Biso   1.000  C
  C65      1.0000 0.88870  0.60990  0.88870  Biso   1.000  C
  C66      1.0000 0.94610  0.55600  0.94610  Biso   1.000  C
  C67      1.0000 0.97060  0.46470  0.97060  Biso   1.000  C
  C68      1.0000 0.97480  0.59400  0.97480  Biso   1.000  C
  C69      1.0000 0.11170  0.38940  0.38940  Biso   1.000  C
  C70      1.0000 0.05990  0.44245  0.44245  Biso   1.000  C
  C71      1.0000 0.38940  0.11170  0.38940  Biso   1.000  C
  C72      1.0000 0.44245  0.05990  0.44245  Biso   1.000  C
  C73      1.0000 0.38940  0.38940  0.11170  Biso   1.000  C
  C74      1.0000 0.44245  0.44245  0.05990  Biso   1.000  C
  C75      1.0000 0.61060  0.88830  0.61060  Biso   1.000  C
  C76      1.0000 0.55755  0.94010  0.55755  Biso   1.000  C
  C77      1.0000 0.88830  0.61060  0.61060  Biso   1.000  C
  C78      1.0000 0.94010  0.55755  0.55755  Biso   1.000  C
  C79      1.0000 0.61060  0.61060  0.88830  Biso   1.000  C
  C80      1.0000 0.55755  0.55755  0.94010  Biso   1.000  C
  C81      1.0000 0.13529  0.42759  0.30119  Biso   1.000  C
  C82      1.0000 0.30119  0.13529  0.42759  Biso   1.000  C
  C83      1.0000 0.42759  0.30119  0.13529  Biso   1.000  C
  C84      1.0000 0.57241  0.86471  0.69881  Biso   1.000  C
  C85      1.0000 0.86471  0.69881  0.57241  Biso   1.000  C
  C86      1.0000 0.69881  0.57241  0.86471  Biso   1.000  C
  C87      1.0000 0.86471  0.57241  0.69881  Biso   1.000  C
  C88      1.0000 0.69881  0.86471  0.57241  Biso   1.000  C
  C89      1.0000 0.57241  0.69881  0.86471  Biso   1.000  C
  C90      1.0000 0.42759  0.13529  0.30119  Biso   1.000  C
  C91      1.0000 0.13529  0.30119  0.42759  Biso   1.000  C
  C92      1.0000 0.30119  0.42759  0.13529  Biso   1.000  C
  C93      1.0000 0.25153  0.25153  0.25153  Biso   1.000  C
  C94      1.0000 0.74847  0.74847  0.74847  Biso   1.000  C
  C95      1.0000 0.13410  0.30220  0.13410  Biso   1.000  C
  C96      1.0000 0.13380  0.42820  0.13380  Biso   1.000  C
  C97      1.0000 0.13410  0.13410  0.30220  Biso   1.000  C
  C98      1.0000 0.13380  0.13380  0.42820  Biso   1.000  C
  C99      1.0000 0.30220  0.13410  0.13410  Biso   1.000  C
  C100     1.0000 0.42820  0.13380  0.13380  Biso   1.000  C
  C101     1.0000 0.69780  0.86590  0.86590  Biso   1.000  C
  C102     1.0000 0.57180  0.86620  0.86620  Biso   1.000  C
  C103     1.0000 0.86590  0.86590  0.69780  Biso   1.000  C
  C104     1.0000 0.86620  0.86620  0.57180  Biso   1.000  C
  C105     1.0000 0.86590  0.69780  0.86590  Biso   1.000  C
  C106     1.0000 0.86620  0.57180  0.86620  Biso   1.000  C
  O1       1.0000 0.59871  0.07463  0.72399  Biso   1.000  O
  O2       1.0000 0.59988  0.24893  0.72399  Biso   1.000  O
  O3       1.0000 0.42269  0.24893  0.72399  Biso   1.000  O
  O4       1.0000 0.59886  0.24850  0.55041  Biso   1.000  O
  O5       1.0000 0.02096  0.66288  0.14183  Biso   1.000  O
  O6       1.0000 0.02213  0.83719  0.14183  Biso   1.000  O
  O7       1.0000 0.19815  0.66288  0.14183  Biso   1.000  O
  O8       1.0000 0.02198  0.66332  0.31541  Biso   1.000  O
  O9       1.0000 0.46421  0.89445  0.87964  Biso   1.000  O
  O10      1.0000 0.75904  0.40490  0.59252  Biso   1.000  O
  O11      1.0000 0.23916  0.11730  0.87964  Biso   1.000  O
  O12      1.0000 0.75773  0.40434  0.37059  Biso   1.000  O
  O13      1.0000 0.23940  0.40490  0.59252  Biso   1.000  O
  O14      1.0000 0.75880  0.11730  0.87964  Biso   1.000  O
  O15      1.0000 0.46464  0.40434  0.37059  Biso   1.000  O
  O16      1.0000 0.75730  0.89445  0.87964  Biso   1.000  O
  O17      1.0000 0.75579  0.11603  0.37059  Biso   1.000  O
  O18      1.0000 0.46765  0.40562  0.87964  Biso   1.000  O
  O19      1.0000 0.75560  0.89373  0.59252  Biso   1.000  O
  O20      1.0000 0.24110  0.40562  0.87964  Biso   1.000  O
  O21      1.0000 0.15319  0.50620  0.98618  Biso   1.000  O
  O22      1.0000 0.86524  0.01809  0.27330  Biso   1.000  O
  O23      1.0000 0.37974  0.50620  0.98618  Biso   1.000  O
  O24      1.0000 0.86505  0.79579  0.49523  Biso   1.000  O
  O25      1.0000 0.38143  0.50692  0.27330  Biso   1.000  O
  O26      1.0000 0.86354  0.01737  0.98618  Biso   1.000  O
  O27      1.0000 0.15620  0.50748  0.49523  Biso   1.000  O
  O28      1.0000 0.86204  0.79451  0.98618  Biso   1.000  O
  O29      1.0000 0.86311  0.50748  0.49523  Biso   1.000  O
  O30      1.0000 0.15663  0.01737  0.98618  Biso   1.000  O
  O31      1.0000 0.86180  0.50692  0.27330  Biso   1.000  O
  O32      1.0000 0.38168  0.79451  0.98618  Biso   1.000  O
  O33      1.0000 0.39451  0.91759  0.90242  Biso   1.000  O
  O34      1.0000 0.78205  0.42761  0.52396  Biso   1.000  O
  O35      1.0000 0.26230  0.04852  0.90242  Biso   1.000  O
  O36      1.0000 0.78128  0.42728  0.39358  Biso   1.000  O
  O37      1.0000 0.26261  0.42761  0.52396  Biso   1.000  O
  O38      1.0000 0.78173  0.04852  0.90242  Biso   1.000  O
  O39      1.0000 0.39494  0.42728  0.39358  Biso   1.000  O
  O40      1.0000 0.78085  0.91759  0.90242  Biso   1.000  O
  O41      1.0000 0.77872  0.04724  0.39358  Biso   1.000  O
  O42      1.0000 0.39795  0.42856  0.90242  Biso   1.000  O
  O43      1.0000 0.77861  0.91664  0.52396  Biso   1.000  O
  O44      1.0000 0.26485  0.42856  0.90242  Biso   1.000  O
  O45      1.0000 0.22289  0.48326  0.96339  Biso   1.000  O
  O46      1.0000 0.84222  0.99518  0.34186  Biso   1.000  O
  O47      1.0000 0.35598  0.48326  0.96339  Biso   1.000  O
  O48      1.0000 0.84211  0.86458  0.47224  Biso   1.000  O
  O49      1.0000 0.35822  0.48421  0.34186  Biso   1.000  O
  O50      1.0000 0.83999  0.99423  0.96339  Biso   1.000  O
  O51      1.0000 0.22590  0.48454  0.47224  Biso   1.000  O
  O52      1.0000 0.83910  0.86330  0.96339  Biso   1.000  O
  O53      1.0000 0.83956  0.48454  0.47224  Biso   1.000  O
  O54      1.0000 0.22633  0.99423  0.96339  Biso   1.000  O
  O55      1.0000 0.83879  0.48421  0.34186  Biso   1.000  O
  O56      1.0000 0.35854  0.86330  0.96339  Biso   1.000  O
  O57      1.0000 0.41181  0.06483  0.82079  Biso   1.000  O
  O58      1.0000 0.35766  0.01173  0.87379  Biso   1.000  O
  O59      1.0000 0.69826  0.34567  0.54040  Biso   1.000  O
  O60      1.0000 0.75241  0.39877  0.48740  Biso   1.000  O
  O61      1.0000 0.41204  0.34567  0.54040  Biso   1.000  O
  O62      1.0000 0.35798  0.39877  0.48740  Biso   1.000  O
  O63      1.0000 0.69802  0.06483  0.82079  Biso   1.000  O
  O64      1.0000 0.75209  0.01173  0.87379  Biso   1.000  O
  O65      1.0000 0.69637  0.06412  0.54040  Biso   1.000  O
  O66      1.0000 0.74980  0.01076  0.48740  Biso   1.000  O
  O67      1.0000 0.41370  0.34638  0.82079  Biso   1.000  O
  O68      1.0000 0.36027  0.39974  0.87379  Biso   1.000  O
  O69      1.0000 0.20713  0.56544  0.04503  Biso   1.000  O
  O70      1.0000 0.26057  0.51208  0.99203  Biso   1.000  O
  O71      1.0000 0.92447  0.84770  0.32541  Biso   1.000  O
  O72      1.0000 0.87104  0.90105  0.37842  Biso   1.000  O
  O73      1.0000 0.20879  0.56615  0.32541  Biso   1.000  O
  O74      1.0000 0.26286  0.51305  0.37842  Biso   1.000  O
  O75      1.0000 0.92281  0.84699  0.04503  Biso   1.000  O
  O76      1.0000 0.86875  0.90008  0.99203  Biso   1.000  O
  O77      1.0000 0.92258  0.56615  0.32541  Biso   1.000  O
  O78      1.0000 0.86842  0.51305  0.37842  Biso   1.000  O
  O79      1.0000 0.20903  0.84699  0.04503  Biso   1.000  O
  O80      1.0000 0.26318  0.90008  0.99203  Biso   1.000  O
  O81      1.0000 0.55503  0.20525  0.68060  Biso   1.000  O
  O82      1.0000 0.06580  0.70657  0.18522  Biso   1.000  O
  O83      1.0000 0.49900  0.02915  0.79562  Biso   1.000  O
  O84      1.0000 0.67291  0.32062  0.62620  Biso   1.000  O
  O85      1.0000 0.37603  0.15092  0.79562  Biso   1.000  O
  O86      1.0000 0.67219  0.32031  0.50494  Biso   1.000  O
  O87      1.0000 0.37618  0.32062  0.62620  Biso   1.000  O
  O88      1.0000 0.67277  0.15092  0.79562  Biso   1.000  O
  O89      1.0000 0.49925  0.32031  0.50494  Biso   1.000  O
  O90      1.0000 0.67195  0.02915  0.79562  Biso   1.000  O
  O91      1.0000 0.67105  0.15019  0.50494  Biso   1.000  O
  O92      1.0000 0.50097  0.32104  0.79562  Biso   1.000  O
  O93      1.0000 0.67095  0.02872  0.62620  Biso   1.000  O
  O94      1.0000 0.37718  0.32104  0.79562  Biso   1.000  O
  O95      1.0000 0.11987  0.59077  0.07020  Biso   1.000  O
  O96      1.0000 0.94989  0.88310  0.23961  Biso   1.000  O
  O97      1.0000 0.24366  0.59077  0.07020  Biso   1.000  O
  O98      1.0000 0.94979  0.76163  0.36088  Biso   1.000  O
  O99      1.0000 0.24466  0.59120  0.23961  Biso   1.000  O
  O100     1.0000 0.94889  0.88267  0.07020  Biso   1.000  O
  O101     1.0000 0.12159  0.59150  0.36088  Biso   1.000  O
  O102     1.0000 0.94807  0.76090  0.07020  Biso   1.000  O
  O103     1.0000 0.94865  0.59150  0.36088  Biso   1.000  O
  O104     1.0000 0.12183  0.88267  0.07020  Biso   1.000  O
  O105     1.0000 0.94793  0.59120  0.23961  Biso   1.000  O
  O106     1.0000 0.24480  0.76090  0.07020  Biso   1.000  O
