data_image0
_cell_length_a       18.3149
_cell_length_b       18.3149
_cell_length_c       18.3149
_cell_angle_alpha    60.3295
_cell_angle_beta     60.3295
_cell_angle_gamma    60.3295

_symmetry_space_group_name_H-M    "P 1"
_symmetry_int_tables_number       1

loop_
  _symmetry_equiv_pos_as_xyz
  'x, y, z'

loop_
  _atom_site_label
  _atom_site_occupancy
  _atom_site_fract_x
  _atom_site_fract_y
  _atom_site_fract_z
  _atom_site_thermal_displace_type
  _atom_site_B_iso_or_equiv
  _atom_site_type_symbol
  Zn1      1.0000 0.20609  0.20609  0.20609  Biso   1.000  Zn
  Zn2      1.0000 0.79391  0.79391  0.79391  Biso   1.000  Zn
  Zn3      1.0000 0.20677  0.37952  0.20677  Biso   1.000  Zn
  Zn4      1.0000 0.20677  0.20677  0.37952  Biso   1.000  Zn
  Zn5      1.0000 0.37952  0.20677  0.20677  Biso   1.000  Zn
  Zn6      1.0000 0.62048  0.79323  0.79323  Biso   1.000  Zn
  Zn7      1.0000 0.79323  0.79323  0.62048  Biso   1.000  Zn
  Zn8      1.0000 0.79323  0.62048  0.79323  Biso   1.000  Zn
  H1       1.0000 0.04260  0.34350  0.56530  Biso   1.000  H
  H2       1.0000 0.56530  0.04260  0.34350  Biso   1.000  H
  H3       1.0000 0.34350  0.56530  0.04260  Biso   1.000  H
  H4       1.0000 0.65650  0.95740  0.43470  Biso   1.000  H
  H5       1.0000 0.95740  0.43470  0.65650  Biso   1.000  H
  H6       1.0000 0.43470  0.65650  0.95740  Biso   1.000  H
  H7       1.0000 0.95740  0.65650  0.43470  Biso   1.000  H
  H8       1.0000 0.43470  0.95740  0.65650  Biso   1.000  H
  H9       1.0000 0.65650  0.43470  0.95740  Biso   1.000  H
  H10      1.0000 0.34350  0.04260  0.56530  Biso   1.000  H
  H11      1.0000 0.04260  0.56530  0.34350  Biso   1.000  H
  H12      1.0000 0.56530  0.34350  0.04260  Biso   1.000  H
  H13      1.0000 0.04880  0.55860  0.04880  Biso   1.000  H
  H14      1.0000 0.04170  0.34450  0.04170  Biso   1.000  H
  H15      1.0000 0.04880  0.04880  0.55860  Biso   1.000  H
  H16      1.0000 0.04170  0.04170  0.34450  Biso   1.000  H
  H17      1.0000 0.55860  0.04880  0.04880  Biso   1.000  H
  H18      1.0000 0.34450  0.04170  0.04170  Biso   1.000  H
  H19      1.0000 0.44140  0.95120  0.95120  Biso   1.000  H
  H20      1.0000 0.65550  0.95830  0.95830  Biso   1.000  H
  H21      1.0000 0.95120  0.95120  0.44140  Biso   1.000  H
  H22      1.0000 0.95830  0.95830  0.65550  Biso   1.000  H
  H23      1.0000 0.95120  0.44140  0.95120  Biso   1.000  H
  H24      1.0000 0.95830  0.65550  0.95830  Biso   1.000  H
  C1       1.0000 0.02770  0.40510  0.53870  Biso   1.000  C
  C2       1.0000 0.53870  0.02770  0.40510  Biso   1.000  C
  C3       1.0000 0.40510  0.53870  0.02770  Biso   1.000  C
  C4       1.0000 0.59490  0.97230  0.46130  Biso   1.000  C
  C5       1.0000 0.97230  0.46130  0.59490  Biso   1.000  C
  C6       1.0000 0.46130  0.59490  0.97230  Biso   1.000  C
  C7       1.0000 0.97230  0.59490  0.46130  Biso   1.000  C
  C8       1.0000 0.46130  0.97230  0.59490  Biso   1.000  C
  C9       1.0000 0.59490  0.46130  0.97230  Biso   1.000  C
  C10      1.0000 0.40510  0.02770  0.53870  Biso   1.000  C
  C11      1.0000 0.02770  0.53870  0.40510  Biso   1.000  C
  C12      1.0000 0.53870  0.40510  0.02770  Biso   1.000  C
  C13      1.0000 0.11130  0.39010  0.11130  Biso   1.000  C
  C14      1.0000 0.05390  0.44400  0.05390  Biso   1.000  C
  C15      1.0000 0.02940  0.53530  0.02940  Biso   1.000  C
  C16      1.0000 0.02520  0.40600  0.02520  Biso   1.000  C
  C17      1.0000 0.11130  0.11130  0.39010  Biso   1.000  C
  C18      1.0000 0.05390  0.05390  0.44400  Biso   1.000  C
  C19      1.0000 0.02940  0.02940  0.53530  Biso   1.000  C
  C20      1.0000 0.02520  0.02520  0.40600  Biso   1.000  C
  C21      1.0000 0.39010  0.11130  0.11130  Biso   1.000  C
  C22      1.0000 0.44400  0.05390  0.05390  Biso   1.000  C
  C23      1.0000 0.53530  0.02940  0.02940  Biso   1.000  C
  C24      1.0000 0.40600  0.02520  0.02520  Biso   1.000  C
  C25      1.0000 0.60990  0.88870  0.88870  Biso   1.000  C
  C26      1.0000 0.55600  0.94610  0.94610  Biso   1.000  C
  C27      1.0000 0.46470  0.97060  0.97060  Biso   1.000  C
  C28      1.0000 0.59400  0.97480  0.97480  Biso   1.000  C
  C29      1.0000 0.88870  0.88870  0.60990  Biso   1.000  C
  C30      1.0000 0.94610  0.94610  0.55600  Biso   1.000  C
  C31      1.0000 0.97060  0.97060  0.46470  Biso   1.000  C
  C32      1.0000 0.97480  0.97480  0.59400  Biso   1.000  C
  C33      1.0000 0.88870  0.60990  0.88870  Biso   1.000  C
  C34      1.0000 0.94610  0.55600  0.94610  Biso   1.000  C
  C35      1.0000 0.97060  0.46470  0.97060  Biso   1.000  C
  C36      1.0000 0.97480  0.59400  0.97480  Biso   1.000  C
  C37      1.0000 0.11170  0.38940  0.38940  Biso   1.000  C
  C38      1.0000 0.05990  0.44245  0.44245  Biso   1.000  C
  C39      1.0000 0.38940  0.11170  0.38940  Biso   1.000  C
  C40      1.0000 0.44245  0.05990  0.44245  Biso   1.000  C
  C41      1.0000 0.38940  0.38940  0.11170  Biso   1.000  C
  C42      1.0000 0.44245  0.44245  0.05990  Biso   1.000  C
  C43      1.0000 0.61060  0.88830  0.61060  Biso   1.000  C
  C44      1.0000 0.55755  0.94010  0.55755  Biso   1.000  C
  C45      1.0000 0.88830  0.61060  0.61060  Biso   1.000  C
  C46      1.0000 0.94010  0.55755  0.55755  Biso   1.000  C
  C47      1.0000 0.61060  0.61060  0.88830  Biso   1.000  C
  C48      1.0000 0.55755  0.55755  0.94010  Biso   1.000  C
  O1       1.0000 0.13529  0.42759  0.30119  Biso   1.000  O
  O2       1.0000 0.30119  0.13529  0.42759  Biso   1.000  O
  O3       1.0000 0.42759  0.30119  0.13529  Biso   1.000  O
  O4       1.0000 0.57241  0.86471  0.69881  Biso   1.000  O
  O5       1.0000 0.86471  0.69881  0.57241  Biso   1.000  O
  O6       1.0000 0.69881  0.57241  0.86471  Biso   1.000  O
  O7       1.0000 0.86471  0.57241  0.69881  Biso   1.000  O
  O8       1.0000 0.69881  0.86471  0.57241  Biso   1.000  O
  O9       1.0000 0.57241  0.69881  0.86471  Biso   1.000  O
  O10      1.0000 0.42759  0.13529  0.30119  Biso   1.000  O
  O11      1.0000 0.13529  0.30119  0.42759  Biso   1.000  O
  O12      1.0000 0.30119  0.42759  0.13529  Biso   1.000  O
  O13      1.0000 0.25153  0.25153  0.25153  Biso   1.000  O
  O14      1.0000 0.74847  0.74847  0.74847  Biso   1.000  O
  O15      1.0000 0.13410  0.30220  0.13410  Biso   1.000  O
  O16      1.0000 0.13380  0.42820  0.13380  Biso   1.000  O
  O17      1.0000 0.13410  0.13410  0.30220  Biso   1.000  O
  O18      1.0000 0.13380  0.13380  0.42820  Biso   1.000  O
  O19      1.0000 0.30220  0.13410  0.13410  Biso   1.000  O
  O20      1.0000 0.42820  0.13380  0.13380  Biso   1.000  O
  O21      1.0000 0.69780  0.86590  0.86590  Biso   1.000  O
  O22      1.0000 0.57180  0.86620  0.86620  Biso   1.000  O
  O23      1.0000 0.86590  0.86590  0.69780  Biso   1.000  O
  O24      1.0000 0.86620  0.86620  0.57180  Biso   1.000  O
  O25      1.0000 0.86590  0.69780  0.86590  Biso   1.000  O
  O26      1.0000 0.86620  0.57180  0.86620  Biso   1.000  O
  Zn9      1.0000 0.00000  0.00000  1.00000  Biso   1.000  Zn
  Zn10     1.0000 0.00102  0.00043  0.17178  Biso   1.000  Zn
  Zn11     1.0000 0.82566  0.00043  0.17178  Biso   1.000  Zn
  Zn12     1.0000 0.99986  0.82793  0.17178  Biso   1.000  Zn
  Zn13     1.0000 0.42373  0.41164  0.75162  Biso   1.000  Zn
  Zn14     1.0000 0.42271  0.41121  0.57984  Biso   1.000  Zn
  Zn15     1.0000 0.42387  0.58371  0.57984  Biso   1.000  Zn
  Zn16     1.0000 0.59807  0.41121  0.57984  Biso   1.000  Zn
  H25      1.0000 0.16893  0.16246  0.80574  Biso   1.000  H
  H26      1.0000 0.16437  0.16052  0.03440  Biso   1.000  H
  H27      1.0000 0.64817  0.86288  0.33155  Biso   1.000  H
  H28      1.0000 0.86599  0.63743  0.33155  Biso   1.000  H
  H29      1.0000 0.16757  0.63668  0.03440  Biso   1.000  H
  H30      1.0000 0.16692  0.86407  0.80574  Biso   1.000  H
  H31      1.0000 0.65018  0.16127  0.33155  Biso   1.000  H
  H32      1.0000 0.86279  0.16127  0.33155  Biso   1.000  H
  H33      1.0000 0.16412  0.86288  0.33155  Biso   1.000  H
  H34      1.0000 0.16933  0.63743  0.33155  Biso   1.000  H
  H35      1.0000 0.64842  0.16052  0.03440  Biso   1.000  H
  H36      1.0000 0.86559  0.16246  0.80574  Biso   1.000  H
  H37      1.0000 0.25480  0.24918  0.94588  Biso   1.000  H
  H38      1.0000 0.25936  0.25112  0.71722  Biso   1.000  H
  H39      1.0000 0.55774  0.77421  0.42007  Biso   1.000  H
  H40      1.0000 0.77556  0.54877  0.42007  Biso   1.000  H
  H41      1.0000 0.77531  0.25112  0.71722  Biso   1.000  H
  H42      1.0000 0.55814  0.24918  0.94588  Biso   1.000  H
  H43      1.0000 0.25440  0.77421  0.42007  Biso   1.000  H
  H44      1.0000 0.25961  0.54877  0.42007  Biso   1.000  H
  H45      1.0000 0.56094  0.25037  0.42007  Biso   1.000  H
  H46      1.0000 0.77355  0.25037  0.42007  Biso   1.000  H
  H47      1.0000 0.25616  0.77496  0.71722  Biso   1.000  H
  H48      1.0000 0.25681  0.54758  0.94588  Biso   1.000  H
  C49      1.0000 0.18754  0.18056  0.83235  Biso   1.000  C
  C50      1.0000 0.18245  0.17840  0.97187  Biso   1.000  C
  C51      1.0000 0.67502  0.80013  0.34951  Biso   1.000  C
  C52      1.0000 0.80244  0.66420  0.34951  Biso   1.000  C
  C53      1.0000 0.18571  0.66325  0.97187  Biso   1.000  C
  C54      1.0000 0.18499  0.80134  0.83235  Biso   1.000  C
  C55      1.0000 0.67757  0.17935  0.34951  Biso   1.000  C
  C56      1.0000 0.79918  0.17935  0.34951  Biso   1.000  C
  C57      1.0000 0.18213  0.80013  0.34951  Biso   1.000  C
  C58      1.0000 0.18795  0.66420  0.34951  Biso   1.000  C
  C59      1.0000 0.67534  0.17840  0.97187  Biso   1.000  C
  C60      1.0000 0.80204  0.18056  0.83235  Biso   1.000  C
  C61      1.0000 0.23619  0.23108  0.91927  Biso   1.000  C
  C62      1.0000 0.24128  0.23324  0.77975  Biso   1.000  C
  C63      1.0000 0.62129  0.74744  0.40211  Biso   1.000  C
  C64      1.0000 0.74871  0.61151  0.40211  Biso   1.000  C
  C65      1.0000 0.74839  0.23324  0.77975  Biso   1.000  C
  C66      1.0000 0.62169  0.23108  0.91927  Biso   1.000  C
  C67      1.0000 0.23578  0.74744  0.40211  Biso   1.000  C
  C68      1.0000 0.24159  0.61151  0.40211  Biso   1.000  C
  C69      1.0000 0.62455  0.23229  0.40211  Biso   1.000  C
  C70      1.0000 0.74616  0.23229  0.40211  Biso   1.000  C
  C71      1.0000 0.23801  0.74839  0.77975  Biso   1.000  C
  C72      1.0000 0.23874  0.61030  0.91927  Biso   1.000  C
  C73      1.0000 0.09644  0.09428  0.99199  Biso   1.000  C
  C74      1.0000 0.15459  0.15130  0.93507  Biso   1.000  C
  C75      1.0000 0.81681  0.82012  0.26569  Biso   1.000  C
  C76      1.0000 0.75866  0.76311  0.32261  Biso   1.000  C
  C77      1.0000 0.09459  0.81944  0.99199  Biso   1.000  C
  C78      1.0000 0.15197  0.76213  0.93507  Biso   1.000  C
  C79      1.0000 0.81866  0.09497  0.26569  Biso   1.000  C
  C80      1.0000 0.76128  0.15227  0.32261  Biso   1.000  C
  C81      1.0000 0.09621  0.82012  0.26569  Biso   1.000  C
  C82      1.0000 0.15427  0.76311  0.32261  Biso   1.000  C
  C83      1.0000 0.81704  0.09428  0.99199  Biso   1.000  C
  C84      1.0000 0.75898  0.15130  0.93507  Biso   1.000  C
  C85      1.0000 0.32729  0.31736  0.75963  Biso   1.000  C
  C86      1.0000 0.26914  0.26035  0.81655  Biso   1.000  C
  C87      1.0000 0.60692  0.59152  0.48593  Biso   1.000  C
  C88      1.0000 0.66507  0.64853  0.42901  Biso   1.000  C
  C89      1.0000 0.60669  0.31736  0.75963  Biso   1.000  C
  C90      1.0000 0.66475  0.26035  0.81655  Biso   1.000  C
  C91      1.0000 0.32752  0.59152  0.48593  Biso   1.000  C
  C92      1.0000 0.26946  0.64853  0.42901  Biso   1.000  C
  C93      1.0000 0.60507  0.31667  0.48593  Biso   1.000  C
  C94      1.0000 0.66245  0.25937  0.42901  Biso   1.000  C
  C95      1.0000 0.32914  0.59220  0.75963  Biso   1.000  C
  C96      1.0000 0.27175  0.64951  0.81655  Biso   1.000  C
  O27      1.0000 0.95663  0.95720  0.12884  Biso   1.000  O
  O28      1.0000 0.46710  0.45444  0.62278  Biso   1.000  O
  O29      1.0000 0.07359  0.07207  0.95385  Biso   1.000  O
  O30      1.0000 0.07430  0.07237  0.07417  Biso   1.000  O
  O31      1.0000 0.77830  0.90259  0.24367  Biso   1.000  O
  O32      1.0000 0.90032  0.78177  0.24367  Biso   1.000  O
  O33      1.0000 0.07234  0.78134  0.07417  Biso   1.000  O
  O34      1.0000 0.07244  0.90186  0.95385  Biso   1.000  O
  O35      1.0000 0.77945  0.07280  0.24367  Biso   1.000  O
  O36      1.0000 0.90227  0.07280  0.24367  Biso   1.000  O
  O37      1.0000 0.07416  0.90259  0.24367  Biso   1.000  O
  O38      1.0000 0.07334  0.78177  0.24367  Biso   1.000  O
  O39      1.0000 0.77844  0.07237  0.07417  Biso   1.000  O
  O40      1.0000 0.90056  0.07207  0.95385  Biso   1.000  O
  O41      1.0000 0.35014  0.33957  0.79777  Biso   1.000  O
  O42      1.0000 0.34943  0.33927  0.67745  Biso   1.000  O
  O43      1.0000 0.52341  0.62987  0.50795  Biso   1.000  O
  O44      1.0000 0.64543  0.50905  0.50795  Biso   1.000  O
  O45      1.0000 0.64529  0.33927  0.67745  Biso   1.000  O
  O46      1.0000 0.52317  0.33957  0.79777  Biso   1.000  O
  O47      1.0000 0.35039  0.62987  0.50795  Biso   1.000  O
  O48      1.0000 0.34957  0.50905  0.50795  Biso   1.000  O
  O49      1.0000 0.52145  0.33884  0.50795  Biso   1.000  O
  O50      1.0000 0.64428  0.33884  0.50795  Biso   1.000  O
  O51      1.0000 0.35139  0.63030  0.67745  Biso   1.000  O
  O52      1.0000 0.35129  0.50978  0.79777  Biso   1.000  O
