data_image0
_cell_length_a       18.3149
_cell_length_b       18.3149
_cell_length_c       18.3149
_cell_angle_alpha    60.3295
_cell_angle_beta     60.3295
_cell_angle_gamma    60.3295

_symmetry_space_group_name_H-M    "P 1"
_symmetry_int_tables_number       1

loop_
  _symmetry_equiv_pos_as_xyz
  'x, y, z'

loop_
  _atom_site_label
  _atom_site_occupancy
  _atom_site_fract_x
  _atom_site_fract_y
  _atom_site_fract_z
  _atom_site_thermal_displace_type
  _atom_site_B_iso_or_equiv
  _atom_site_type_symbol
  Zn1      1.0000 0.20609  0.20609  0.20609  Biso   1.000  Zn
  Zn2      1.0000 0.79391  0.79391  0.79391  Biso   1.000  Zn
  Zn3      1.0000 0.20677  0.37952  0.20677  Biso   1.000  Zn
  Zn4      1.0000 0.20677  0.20677  0.37952  Biso   1.000  Zn
  Zn5      1.0000 0.37952  0.20677  0.20677  Biso   1.000  Zn
  Zn6      1.0000 0.62048  0.79323  0.79323  Biso   1.000  Zn
  Zn7      1.0000 0.79323  0.79323  0.62048  Biso   1.000  Zn
  Zn8      1.0000 0.79323  0.62048  0.79323  Biso   1.000  Zn
  H1       1.0000 0.04260  0.34350  0.56530  Biso   1.000  H
  H2       1.0000 0.56530  0.04260  0.34350  Biso   1.000  H
  H3       1.0000 0.34350  0.56530  0.04260  Biso   1.000  H
  H4       1.0000 0.65650  0.95740  0.43470  Biso   1.000  H
  H5       1.0000 0.95740  0.43470  0.65650  Biso   1.000  H
  H6       1.0000 0.43470  0.65650  0.95740  Biso   1.000  H
  H7       1.0000 0.95740  0.65650  0.43470  Biso   1.000  H
  H8       1.0000 0.43470  0.95740  0.65650  Biso   1.000  H
  H9       1.0000 0.65650  0.43470  0.95740  Biso   1.000  H
  H10      1.0000 0.34350  0.04260  0.56530  Biso   1.000  H
  H11      1.0000 0.04260  0.56530  0.34350  Biso   1.000  H
  H12      1.0000 0.56530  0.34350  0.04260  Biso   1.000  H
  H13      1.0000 0.04880  0.55860  0.04880  Biso   1.000  H
  H14      1.0000 0.04170  0.34450  0.04170  Biso   1.000  H
  H15      1.0000 0.04880  0.04880  0.55860  Biso   1.000  H
  H16      1.0000 0.04170  0.04170  0.34450  Biso   1.000  H
  H17      1.0000 0.55860  0.04880  0.04880  Biso   1.000  H
  H18      1.0000 0.34450  0.04170  0.04170  Biso   1.000  H
  H19      1.0000 0.44140  0.95120  0.95120  Biso   1.000  H
  H20      1.0000 0.65550  0.95830  0.95830  Biso   1.000  H
  H21      1.0000 0.95120  0.95120  0.44140  Biso   1.000  H
  H22      1.0000 0.95830  0.95830  0.65550  Biso   1.000  H
  H23      1.0000 0.95120  0.44140  0.95120  Biso   1.000  H
  H24      1.0000 0.95830  0.65550  0.95830  Biso   1.000  H
  C1       1.0000 0.02770  0.40510  0.53870  Biso   1.000  C
  C2       1.0000 0.53870  0.02770  0.40510  Biso   1.000  C
  C3       1.0000 0.40510  0.53870  0.02770  Biso   1.000  C
  C4       1.0000 0.59490  0.97230  0.46130  Biso   1.000  C
  C5       1.0000 0.97230  0.46130  0.59490  Biso   1.000  C
  C6       1.0000 0.46130  0.59490  0.97230  Biso   1.000  C
  C7       1.0000 0.97230  0.59490  0.46130  Biso   1.000  C
  C8       1.0000 0.46130  0.97230  0.59490  Biso   1.000  C
  C9       1.0000 0.59490  0.46130  0.97230  Biso   1.000  C
  C10      1.0000 0.40510  0.02770  0.53870  Biso   1.000  C
  C11      1.0000 0.02770  0.53870  0.40510  Biso   1.000  C
  C12      1.0000 0.53870  0.40510  0.02770  Biso   1.000  C
  C13      1.0000 0.11130  0.39010  0.11130  Biso   1.000  C
  C14      1.0000 0.05390  0.44400  0.05390  Biso   1.000  C
  C15      1.0000 0.02940  0.53530  0.02940  Biso   1.000  C
  C16      1.0000 0.02520  0.40600  0.02520  Biso   1.000  C
  C17      1.0000 0.11130  0.11130  0.39010  Biso   1.000  C
  C18      1.0000 0.05390  0.05390  0.44400  Biso   1.000  C
  C19      1.0000 0.02940  0.02940  0.53530  Biso   1.000  C
  C20      1.0000 0.02520  0.02520  0.40600  Biso   1.000  C
  C21      1.0000 0.39010  0.11130  0.11130  Biso   1.000  C
  C22      1.0000 0.44400  0.05390  0.05390  Biso   1.000  C
  C23      1.0000 0.53530  0.02940  0.02940  Biso   1.000  C
  C24      1.0000 0.40600  0.02520  0.02520  Biso   1.000  C
  C25      1.0000 0.60990  0.88870  0.88870  Biso   1.000  C
  C26      1.0000 0.55600  0.94610  0.94610  Biso   1.000  C
  C27      1.0000 0.46470  0.97060  0.97060  Biso   1.000  C
  C28      1.0000 0.59400  0.97480  0.97480  Biso   1.000  C
  C29      1.0000 0.88870  0.88870  0.60990  Biso   1.000  C
  C30      1.0000 0.94610  0.94610  0.55600  Biso   1.000  C
  C31      1.0000 0.97060  0.97060  0.46470  Biso   1.000  C
  C32      1.0000 0.97480  0.97480  0.59400  Biso   1.000  C
  C33      1.0000 0.88870  0.60990  0.88870  Biso   1.000  C
  C34      1.0000 0.94610  0.55600  0.94610  Biso   1.000  C
  C35      1.0000 0.97060  0.46470  0.97060  Biso   1.000  C
  C36      1.0000 0.97480  0.59400  0.97480  Biso   1.000  C
  C37      1.0000 0.11170  0.38940  0.38940  Biso   1.000  C
  C38      1.0000 0.05990  0.44245  0.44245  Biso   1.000  C
  C39      1.0000 0.38940  0.11170  0.38940  Biso   1.000  C
  C40      1.0000 0.44245  0.05990  0.44245  Biso   1.000  C
  C41      1.0000 0.38940  0.38940  0.11170  Biso   1.000  C
  C42      1.0000 0.44245  0.44245  0.05990  Biso   1.000  C
  C43      1.0000 0.61060  0.88830  0.61060  Biso   1.000  C
  C44      1.0000 0.55755  0.94010  0.55755  Biso   1.000  C
  C45      1.0000 0.88830  0.61060  0.61060  Biso   1.000  C
  C46      1.0000 0.94010  0.55755  0.55755  Biso   1.000  C
  C47      1.0000 0.61060  0.61060  0.88830  Biso   1.000  C
  C48      1.0000 0.55755  0.55755  0.94010  Biso   1.000  C
  O1       1.0000 0.13529  0.42759  0.30119  Biso   1.000  O
  O2       1.0000 0.30119  0.13529  0.42759  Biso   1.000  O
  O3       1.0000 0.42759  0.30119  0.13529  Biso   1.000  O
  O4       1.0000 0.57241  0.86471  0.69881  Biso   1.000  O
  O5       1.0000 0.86471  0.69881  0.57241  Biso   1.000  O
  O6       1.0000 0.69881  0.57241  0.86471  Biso   1.000  O
  O7       1.0000 0.86471  0.57241  0.69881  Biso   1.000  O
  O8       1.0000 0.69881  0.86471  0.57241  Biso   1.000  O
  O9       1.0000 0.57241  0.69881  0.86471  Biso   1.000  O
  O10      1.0000 0.42759  0.13529  0.30119  Biso   1.000  O
  O11      1.0000 0.13529  0.30119  0.42759  Biso   1.000  O
  O12      1.0000 0.30119  0.42759  0.13529  Biso   1.000  O
  O13      1.0000 0.25153  0.25153  0.25153  Biso   1.000  O
  O14      1.0000 0.74847  0.74847  0.74847  Biso   1.000  O
  O15      1.0000 0.13410  0.30220  0.13410  Biso   1.000  O
  O16      1.0000 0.13380  0.42820  0.13380  Biso   1.000  O
  O17      1.0000 0.13410  0.13410  0.30220  Biso   1.000  O
  O18      1.0000 0.13380  0.13380  0.42820  Biso   1.000  O
  O19      1.0000 0.30220  0.13410  0.13410  Biso   1.000  O
  O20      1.0000 0.42820  0.13380  0.13380  Biso   1.000  O
  O21      1.0000 0.69780  0.86590  0.86590  Biso   1.000  O
  O22      1.0000 0.57180  0.86620  0.86620  Biso   1.000  O
  O23      1.0000 0.86590  0.86590  0.69780  Biso   1.000  O
  O24      1.0000 0.86620  0.86620  0.57180  Biso   1.000  O
  O25      1.0000 0.86590  0.69780  0.86590  Biso   1.000  O
  O26      1.0000 0.86620  0.57180  0.86620  Biso   1.000  O
  Zn9      1.0000 1.00000  0.00000  1.00000  Biso   1.000  Zn
  Zn10     1.0000 0.00101  0.00043  0.17004  Biso   1.000  Zn
  Zn11     1.0000 0.82742  0.00043  0.17004  Biso   1.000  Zn
  Zn12     1.0000 0.99986  0.82967  0.17004  Biso   1.000  Zn
  Zn13     1.0000 0.41125  0.42543  0.76848  Biso   1.000  Zn
  Zn14     1.0000 0.41024  0.42500  0.59844  Biso   1.000  Zn
  Zn15     1.0000 0.41139  0.59575  0.59844  Biso   1.000  Zn
  Zn16     1.0000 0.58382  0.42500  0.59844  Biso   1.000  Zn
  H25      1.0000 0.86311  0.15768  0.81913  Biso   1.000  H
  H26      1.0000 0.16178  0.86618  0.32752  Biso   1.000  H
  H27      1.0000 0.64305  0.15823  0.03596  Biso   1.000  H
  H28      1.0000 0.16031  0.64845  0.32752  Biso   1.000  H
  H29      1.0000 0.86268  0.64845  0.32752  Biso   1.000  H
  H30      1.0000 0.16074  0.15768  0.81913  Biso   1.000  H
  H31      1.0000 0.64281  0.86618  0.32752  Biso   1.000  H
  H32      1.0000 0.16202  0.15823  0.03596  Biso   1.000  H
  H33      1.0000 0.86612  0.15896  0.32752  Biso   1.000  H
  H34      1.0000 0.15859  0.64772  0.03596  Biso   1.000  H
  H35      1.0000 0.64478  0.15896  0.32752  Biso   1.000  H
  H36      1.0000 0.15877  0.86490  0.81913  Biso   1.000  H
  H37      1.0000 0.25247  0.56053  0.94935  Biso   1.000  H
  H38      1.0000 0.54513  0.26647  0.44096  Biso   1.000  H
  H39      1.0000 0.25266  0.77771  0.73252  Biso   1.000  H
  H40      1.0000 0.76647  0.26647  0.44096  Biso   1.000  H
  H41      1.0000 0.76844  0.55925  0.44096  Biso   1.000  H
  H42      1.0000 0.25050  0.26775  0.94935  Biso   1.000  H
  H43      1.0000 0.54856  0.77698  0.44096  Biso   1.000  H
  H44      1.0000 0.24922  0.26720  0.73252  Biso   1.000  H
  H45      1.0000 0.24947  0.55925  0.44096  Biso   1.000  H
  H46      1.0000 0.76819  0.26720  0.73252  Biso   1.000  H
  H47      1.0000 0.25093  0.77698  0.44096  Biso   1.000  H
  H48      1.0000 0.54814  0.26775  0.94935  Biso   1.000  H
  C49      1.0000 0.80001  0.17580  0.84526  Biso   1.000  C
  C50      1.0000 0.17981  0.80389  0.34550  Biso   1.000  C
  C51      1.0000 0.66948  0.17612  0.97388  Biso   1.000  C
  C52      1.0000 0.17895  0.67473  0.34550  Biso   1.000  C
  C53      1.0000 0.79959  0.67473  0.34550  Biso   1.000  C
  C54      1.0000 0.17937  0.17580  0.84526  Biso   1.000  C
  C55      1.0000 0.66917  0.80389  0.34550  Biso   1.000  C
  C56      1.0000 0.18013  0.17612  0.97388  Biso   1.000  C
  C57      1.0000 0.80297  0.17705  0.34550  Biso   1.000  C
  C58      1.0000 0.17675  0.67380  0.97388  Biso   1.000  C
  C59      1.0000 0.67168  0.17705  0.34550  Biso   1.000  C
  C60      1.0000 0.17686  0.80263  0.84526  Biso   1.000  C
  C61      1.0000 0.23439  0.62280  0.92322  Biso   1.000  C
  C62      1.0000 0.60827  0.24838  0.42298  Biso   1.000  C
  C63      1.0000 0.23450  0.75163  0.79460  Biso   1.000  C
  C64      1.0000 0.73956  0.24838  0.42298  Biso   1.000  C
  C65      1.0000 0.74208  0.62154  0.42298  Biso   1.000  C
  C66      1.0000 0.23188  0.24963  0.92322  Biso   1.000  C
  C67      1.0000 0.61165  0.75070  0.42298  Biso   1.000  C
  C68      1.0000 0.23112  0.24931  0.79460  Biso   1.000  C
  C69      1.0000 0.23143  0.62154  0.42298  Biso   1.000  C
  C70      1.0000 0.74176  0.24931  0.79460  Biso   1.000  C
  C71      1.0000 0.23230  0.75070  0.42298  Biso   1.000  C
  C72      1.0000 0.61123  0.24963  0.92322  Biso   1.000  C
  C73      1.0000 0.76172  0.14947  0.93601  Biso   1.000  C
  C74      1.0000 0.81969  0.09255  0.99285  Biso   1.000  C
  C75      1.0000 0.15241  0.76579  0.31906  Biso   1.000  C
  C76      1.0000 0.09444  0.82272  0.26222  Biso   1.000  C
  C77      1.0000 0.76140  0.76579  0.31906  Biso   1.000  C
  C78      1.0000 0.81946  0.82272  0.26222  Biso   1.000  C
  C79      1.0000 0.15273  0.14947  0.93601  Biso   1.000  C
  C80      1.0000 0.09467  0.09255  0.99285  Biso   1.000  C
  C81      1.0000 0.76398  0.15044  0.31906  Biso   1.000  C
  C82      1.0000 0.82128  0.09322  0.26222  Biso   1.000  C
  C83      1.0000 0.15014  0.76483  0.93601  Biso   1.000  C
  C84      1.0000 0.09285  0.82205  0.99285  Biso   1.000  C
  C85      1.0000 0.26110  0.66060  0.83247  Biso   1.000  C
  C86      1.0000 0.31840  0.60338  0.77563  Biso   1.000  C
  C87      1.0000 0.64726  0.27499  0.44942  Biso   1.000  C
  C88      1.0000 0.58997  0.33221  0.50626  Biso   1.000  C
  C89      1.0000 0.64985  0.65963  0.44942  Biso   1.000  C
  C90      1.0000 0.59179  0.60271  0.50626  Biso   1.000  C
  C91      1.0000 0.25851  0.27596  0.83247  Biso   1.000  C
  C92      1.0000 0.31658  0.33288  0.77563  Biso   1.000  C
  C93      1.0000 0.25884  0.65963  0.44942  Biso   1.000  C
  C94      1.0000 0.31680  0.60271  0.50626  Biso   1.000  C
  C95      1.0000 0.64953  0.27596  0.83247  Biso   1.000  C
  C96      1.0000 0.59156  0.33288  0.77563  Biso   1.000  C
  O27      1.0000 0.95706  0.95763  0.12754  Biso   1.000  O
  O28      1.0000 0.45418  0.46779  0.64094  Biso   1.000  O
  O29      1.0000 0.90522  0.07089  0.95159  Biso   1.000  O
  O30      1.0000 0.07298  0.90719  0.24077  Biso   1.000  O
  O31      1.0000 0.77793  0.07121  0.07702  Biso   1.000  O
  O32      1.0000 0.07213  0.78124  0.24077  Biso   1.000  O
  O33      1.0000 0.90498  0.78124  0.24077  Biso   1.000  O
  O34      1.0000 0.07237  0.07089  0.95159  Biso   1.000  O
  O35      1.0000 0.77779  0.90719  0.24077  Biso   1.000  O
  O36      1.0000 0.07312  0.07121  0.07702  Biso   1.000  O
  O37      1.0000 0.90693  0.07162  0.24077  Biso   1.000  O
  O38      1.0000 0.07116  0.78083  0.07702  Biso   1.000  O
  O39      1.0000 0.77890  0.07162  0.24077  Biso   1.000  O
  O40      1.0000 0.07127  0.90646  0.95159  Biso   1.000  O
  O41      1.0000 0.33998  0.51896  0.81689  Biso   1.000  O
  O42      1.0000 0.50432  0.35381  0.52771  Biso   1.000  O
  O43      1.0000 0.34008  0.64460  0.69146  Biso   1.000  O
  O44      1.0000 0.63235  0.35381  0.52771  Biso   1.000  O
  O45      1.0000 0.63346  0.51824  0.52771  Biso   1.000  O
  O46      1.0000 0.33887  0.35453  0.81689  Biso   1.000  O
  O47      1.0000 0.50627  0.64419  0.52771  Biso   1.000  O
  O48      1.0000 0.33813  0.35422  0.69146  Biso   1.000  O
  O49      1.0000 0.33827  0.51824  0.52771  Biso   1.000  O
  O50      1.0000 0.63332  0.35422  0.69146  Biso   1.000  O
  O51      1.0000 0.33911  0.64419  0.52771  Biso   1.000  O
  O52      1.0000 0.50603  0.35453  0.81689  Biso   1.000  O
