data_image0
_cell_length_a       18.3149
_cell_length_b       18.3149
_cell_length_c       18.3149
_cell_angle_alpha    60.3295
_cell_angle_beta     60.3295
_cell_angle_gamma    60.3295

_symmetry_space_group_name_H-M    "P 1"
_symmetry_int_tables_number       1

loop_
  _symmetry_equiv_pos_as_xyz
  'x, y, z'

loop_
  _atom_site_label
  _atom_site_occupancy
  _atom_site_fract_x
  _atom_site_fract_y
  _atom_site_fract_z
  _atom_site_thermal_displace_type
  _atom_site_B_iso_or_equiv
  _atom_site_type_symbol
  Zn1      1.0000 0.20609  0.20609  0.20609  Biso   1.000  Zn
  Zn2      1.0000 0.79391  0.79391  0.79391  Biso   1.000  Zn
  Zn3      1.0000 0.20677  0.37952  0.20677  Biso   1.000  Zn
  Zn4      1.0000 0.20677  0.20677  0.37952  Biso   1.000  Zn
  Zn5      1.0000 0.37952  0.20677  0.20677  Biso   1.000  Zn
  Zn6      1.0000 0.62048  0.79323  0.79323  Biso   1.000  Zn
  Zn7      1.0000 0.79323  0.79323  0.62048  Biso   1.000  Zn
  Zn8      1.0000 0.79323  0.62048  0.79323  Biso   1.000  Zn
  H1       1.0000 0.04260  0.34350  0.56530  Biso   1.000  H
  H2       1.0000 0.56530  0.04260  0.34350  Biso   1.000  H
  H3       1.0000 0.34350  0.56530  0.04260  Biso   1.000  H
  H4       1.0000 0.65650  0.95740  0.43470  Biso   1.000  H
  H5       1.0000 0.95740  0.43470  0.65650  Biso   1.000  H
  H6       1.0000 0.43470  0.65650  0.95740  Biso   1.000  H
  H7       1.0000 0.95740  0.65650  0.43470  Biso   1.000  H
  H8       1.0000 0.43470  0.95740  0.65650  Biso   1.000  H
  H9       1.0000 0.65650  0.43470  0.95740  Biso   1.000  H
  H10      1.0000 0.34350  0.04260  0.56530  Biso   1.000  H
  H11      1.0000 0.04260  0.56530  0.34350  Biso   1.000  H
  H12      1.0000 0.56530  0.34350  0.04260  Biso   1.000  H
  H13      1.0000 0.04880  0.55860  0.04880  Biso   1.000  H
  H14      1.0000 0.04170  0.34450  0.04170  Biso   1.000  H
  H15      1.0000 0.04880  0.04880  0.55860  Biso   1.000  H
  H16      1.0000 0.04170  0.04170  0.34450  Biso   1.000  H
  H17      1.0000 0.55860  0.04880  0.04880  Biso   1.000  H
  H18      1.0000 0.34450  0.04170  0.04170  Biso   1.000  H
  H19      1.0000 0.44140  0.95120  0.95120  Biso   1.000  H
  H20      1.0000 0.65550  0.95830  0.95830  Biso   1.000  H
  H21      1.0000 0.95120  0.95120  0.44140  Biso   1.000  H
  H22      1.0000 0.95830  0.95830  0.65550  Biso   1.000  H
  H23      1.0000 0.95120  0.44140  0.95120  Biso   1.000  H
  H24      1.0000 0.95830  0.65550  0.95830  Biso   1.000  H
  C1       1.0000 0.02770  0.40510  0.53870  Biso   1.000  C
  C2       1.0000 0.53870  0.02770  0.40510  Biso   1.000  C
  C3       1.0000 0.40510  0.53870  0.02770  Biso   1.000  C
  C4       1.0000 0.59490  0.97230  0.46130  Biso   1.000  C
  C5       1.0000 0.97230  0.46130  0.59490  Biso   1.000  C
  C6       1.0000 0.46130  0.59490  0.97230  Biso   1.000  C
  C7       1.0000 0.97230  0.59490  0.46130  Biso   1.000  C
  C8       1.0000 0.46130  0.97230  0.59490  Biso   1.000  C
  C9       1.0000 0.59490  0.46130  0.97230  Biso   1.000  C
  C10      1.0000 0.40510  0.02770  0.53870  Biso   1.000  C
  C11      1.0000 0.02770  0.53870  0.40510  Biso   1.000  C
  C12      1.0000 0.53870  0.40510  0.02770  Biso   1.000  C
  C13      1.0000 0.11130  0.39010  0.11130  Biso   1.000  C
  C14      1.0000 0.05390  0.44400  0.05390  Biso   1.000  C
  C15      1.0000 0.02940  0.53530  0.02940  Biso   1.000  C
  C16      1.0000 0.02520  0.40600  0.02520  Biso   1.000  C
  C17      1.0000 0.11130  0.11130  0.39010  Biso   1.000  C
  C18      1.0000 0.05390  0.05390  0.44400  Biso   1.000  C
  C19      1.0000 0.02940  0.02940  0.53530  Biso   1.000  C
  C20      1.0000 0.02520  0.02520  0.40600  Biso   1.000  C
  C21      1.0000 0.39010  0.11130  0.11130  Biso   1.000  C
  C22      1.0000 0.44400  0.05390  0.05390  Biso   1.000  C
  C23      1.0000 0.53530  0.02940  0.02940  Biso   1.000  C
  C24      1.0000 0.40600  0.02520  0.02520  Biso   1.000  C
  C25      1.0000 0.60990  0.88870  0.88870  Biso   1.000  C
  C26      1.0000 0.55600  0.94610  0.94610  Biso   1.000  C
  C27      1.0000 0.46470  0.97060  0.97060  Biso   1.000  C
  C28      1.0000 0.59400  0.97480  0.97480  Biso   1.000  C
  C29      1.0000 0.88870  0.88870  0.60990  Biso   1.000  C
  C30      1.0000 0.94610  0.94610  0.55600  Biso   1.000  C
  C31      1.0000 0.97060  0.97060  0.46470  Biso   1.000  C
  C32      1.0000 0.97480  0.97480  0.59400  Biso   1.000  C
  C33      1.0000 0.88870  0.60990  0.88870  Biso   1.000  C
  C34      1.0000 0.94610  0.55600  0.94610  Biso   1.000  C
  C35      1.0000 0.97060  0.46470  0.97060  Biso   1.000  C
  C36      1.0000 0.97480  0.59400  0.97480  Biso   1.000  C
  C37      1.0000 0.11170  0.38940  0.38940  Biso   1.000  C
  C38      1.0000 0.05990  0.44245  0.44245  Biso   1.000  C
  C39      1.0000 0.38940  0.11170  0.38940  Biso   1.000  C
  C40      1.0000 0.44245  0.05990  0.44245  Biso   1.000  C
  C41      1.0000 0.38940  0.38940  0.11170  Biso   1.000  C
  C42      1.0000 0.44245  0.44245  0.05990  Biso   1.000  C
  C43      1.0000 0.61060  0.88830  0.61060  Biso   1.000  C
  C44      1.0000 0.55755  0.94010  0.55755  Biso   1.000  C
  C45      1.0000 0.88830  0.61060  0.61060  Biso   1.000  C
  C46      1.0000 0.94010  0.55755  0.55755  Biso   1.000  C
  C47      1.0000 0.61060  0.61060  0.88830  Biso   1.000  C
  C48      1.0000 0.55755  0.55755  0.94010  Biso   1.000  C
  O1       1.0000 0.13529  0.42759  0.30119  Biso   1.000  O
  O2       1.0000 0.30119  0.13529  0.42759  Biso   1.000  O
  O3       1.0000 0.42759  0.30119  0.13529  Biso   1.000  O
  O4       1.0000 0.57241  0.86471  0.69881  Biso   1.000  O
  O5       1.0000 0.86471  0.69881  0.57241  Biso   1.000  O
  O6       1.0000 0.69881  0.57241  0.86471  Biso   1.000  O
  O7       1.0000 0.86471  0.57241  0.69881  Biso   1.000  O
  O8       1.0000 0.69881  0.86471  0.57241  Biso   1.000  O
  O9       1.0000 0.57241  0.69881  0.86471  Biso   1.000  O
  O10      1.0000 0.42759  0.13529  0.30119  Biso   1.000  O
  O11      1.0000 0.13529  0.30119  0.42759  Biso   1.000  O
  O12      1.0000 0.30119  0.42759  0.13529  Biso   1.000  O
  O13      1.0000 0.25153  0.25153  0.25153  Biso   1.000  O
  O14      1.0000 0.74847  0.74847  0.74847  Biso   1.000  O
  O15      1.0000 0.13410  0.30220  0.13410  Biso   1.000  O
  O16      1.0000 0.13380  0.42820  0.13380  Biso   1.000  O
  O17      1.0000 0.13410  0.13410  0.30220  Biso   1.000  O
  O18      1.0000 0.13380  0.13380  0.42820  Biso   1.000  O
  O19      1.0000 0.30220  0.13410  0.13410  Biso   1.000  O
  O20      1.0000 0.42820  0.13380  0.13380  Biso   1.000  O
  O21      1.0000 0.69780  0.86590  0.86590  Biso   1.000  O
  O22      1.0000 0.57180  0.86620  0.86620  Biso   1.000  O
  O23      1.0000 0.86590  0.86590  0.69780  Biso   1.000  O
  O24      1.0000 0.86620  0.86620  0.57180  Biso   1.000  O
  O25      1.0000 0.86590  0.69780  0.86590  Biso   1.000  O
  O26      1.0000 0.86620  0.57180  0.86620  Biso   1.000  O
  Zn9      1.0000 0.00000  1.00000  0.00000  Biso   1.000  Zn
  Zn10     1.0000 0.00103  0.00042  0.17203  Biso   1.000  Zn
  Zn11     1.0000 0.82541  0.00043  0.17202  Biso   1.000  Zn
  Zn12     1.0000 0.99987  0.82768  0.17203  Biso   1.000  Zn
  Zn13     1.0000 0.42490  0.41276  0.75322  Biso   1.000  Zn
  Zn14     1.0000 0.42388  0.41233  0.58119  Biso   1.000  Zn
  Zn15     1.0000 0.42505  0.58507  0.58119  Biso   1.000  Zn
  Zn16     1.0000 0.59950  0.41232  0.58119  Biso   1.000  Zn
  H25      1.0000 0.16931  0.16280  0.80711  Biso   1.000  H
  H26      1.0000 0.16474  0.16086  0.03504  Biso   1.000  H
  H27      1.0000 0.64934  0.86327  0.33214  Biso   1.000  H
  H28      1.0000 0.86642  0.63856  0.33214  Biso   1.000  H
  H29      1.0000 0.16795  0.63781  0.03504  Biso   1.000  H
  H30      1.0000 0.16730  0.86446  0.80711  Biso   1.000  H
  H31      1.0000 0.65135  0.16161  0.33214  Biso   1.000  H
  H32      1.0000 0.86321  0.16161  0.33214  Biso   1.000  H
  H33      1.0000 0.16449  0.86327  0.33214  Biso   1.000  H
  H34      1.0000 0.16971  0.63856  0.33214  Biso   1.000  H
  H35      1.0000 0.64959  0.16086  0.03504  Biso   1.000  H
  H36      1.0000 0.86602  0.16280  0.80711  Biso   1.000  H
  H37      1.0000 0.25560  0.24994  0.94611  Biso   1.000  H
  H38      1.0000 0.26017  0.25188  0.71818  Biso   1.000  H
  H39      1.0000 0.55849  0.77419  0.42108  Biso   1.000  H
  H40      1.0000 0.77556  0.54948  0.42108  Biso   1.000  H
  H41      1.0000 0.77531  0.25188  0.71818  Biso   1.000  H
  H42      1.0000 0.55889  0.24994  0.94611  Biso   1.000  H
  H43      1.0000 0.25520  0.77419  0.42108  Biso   1.000  H
  H44      1.0000 0.26042  0.54948  0.42108  Biso   1.000  H
  H45      1.0000 0.56170  0.25114  0.42108  Biso   1.000  H
  H46      1.0000 0.77355  0.25114  0.42108  Biso   1.000  H
  H47      1.0000 0.25696  0.77493  0.71818  Biso   1.000  H
  H48      1.0000 0.25761  0.54829  0.94611  Biso   1.000  H
  C49      1.0000 0.18803  0.18101  0.83371  Biso   1.000  C
  C50      1.0000 0.18293  0.17885  0.97231  Biso   1.000  C
  C51      1.0000 0.67618  0.80032  0.35021  Biso   1.000  C
  C52      1.0000 0.80267  0.66532  0.35021  Biso   1.000  C
  C53      1.0000 0.18620  0.66437  0.97231  Biso   1.000  C
  C54      1.0000 0.18547  0.80154  0.83371  Biso   1.000  C
  C55      1.0000 0.67873  0.17979  0.35021  Biso   1.000  C
  C56      1.0000 0.79941  0.17979  0.35021  Biso   1.000  C
  C57      1.0000 0.18261  0.80032  0.35021  Biso   1.000  C
  C58      1.0000 0.18843  0.66532  0.35021  Biso   1.000  C
  C59      1.0000 0.67650  0.17885  0.97231  Biso   1.000  C
  C60      1.0000 0.80227  0.18101  0.83371  Biso   1.000  C
  C61      1.0000 0.23688  0.23174  0.91950  Biso   1.000  C
  C62      1.0000 0.24198  0.23390  0.78091  Biso   1.000  C
  C63      1.0000 0.62223  0.74743  0.40301  Biso   1.000  C
  C64      1.0000 0.74872  0.61242  0.40301  Biso   1.000  C
  C65      1.0000 0.74841  0.23390  0.78091  Biso   1.000  C
  C66      1.0000 0.62264  0.23174  0.91950  Biso   1.000  C
  C67      1.0000 0.23647  0.74743  0.40301  Biso   1.000  C
  C68      1.0000 0.24229  0.61242  0.40301  Biso   1.000  C
  C69      1.0000 0.62550  0.23295  0.40301  Biso   1.000  C
  C70      1.0000 0.74617  0.23295  0.40301  Biso   1.000  C
  C71      1.0000 0.23871  0.74838  0.78091  Biso   1.000  C
  C72      1.0000 0.23943  0.61121  0.91950  Biso   1.000  C
  C73      1.0000 0.09664  0.09445  0.99193  Biso   1.000  C
  C74      1.0000 0.15531  0.15198  0.93450  Biso   1.000  C
  C75      1.0000 0.81652  0.81981  0.26612  Biso   1.000  C
  C76      1.0000 0.75784  0.76229  0.32355  Biso   1.000  C
  C77      1.0000 0.09479  0.81912  0.99193  Biso   1.000  C
  C78      1.0000 0.15268  0.76131  0.93450  Biso   1.000  C
  C79      1.0000 0.81837  0.09514  0.26612  Biso   1.000  C
  C80      1.0000 0.76047  0.15296  0.32355  Biso   1.000  C
  C81      1.0000 0.09641  0.81981  0.26612  Biso   1.000  C
  C82      1.0000 0.15499  0.76229  0.32355  Biso   1.000  C
  C83      1.0000 0.81675  0.09445  0.99193  Biso   1.000  C
  C84      1.0000 0.75817  0.15198  0.93450  Biso   1.000  C
  C85      1.0000 0.32827  0.31829  0.76129  Biso   1.000  C
  C86      1.0000 0.26959  0.26077  0.81872  Biso   1.000  C
  C87      1.0000 0.60839  0.59293  0.48710  Biso   1.000  C
  C88      1.0000 0.66706  0.65046  0.42967  Biso   1.000  C
  C89      1.0000 0.60816  0.31829  0.76129  Biso   1.000  C
  C90      1.0000 0.66674  0.26077  0.81872  Biso   1.000  C
  C91      1.0000 0.32850  0.59293  0.48710  Biso   1.000  C
  C92      1.0000 0.26992  0.65046  0.42967  Biso   1.000  C
  C93      1.0000 0.60654  0.31760  0.48710  Biso   1.000  C
  C94      1.0000 0.66444  0.25979  0.42967  Biso   1.000  C
  C95      1.0000 0.33012  0.59362  0.76129  Biso   1.000  C
  C96      1.0000 0.27222  0.65144  0.81872  Biso   1.000  C
  O27      1.0000 0.95658  0.95713  0.12902  Biso   1.000  O
  O28      1.0000 0.46833  0.45561  0.62420  Biso   1.000  O
  O29      1.0000 0.07368  0.07214  0.95368  Biso   1.000  O
  O30      1.0000 0.07439  0.07245  0.07442  Biso   1.000  O
  O31      1.0000 0.77790  0.90260  0.24399  Biso   1.000  O
  O32      1.0000 0.90034  0.78135  0.24399  Biso   1.000  O
  O33      1.0000 0.07243  0.78093  0.07442  Biso   1.000  O
  O34      1.0000 0.07253  0.90187  0.95368  Biso   1.000  O
  O35      1.0000 0.77904  0.07287  0.24399  Biso   1.000  O
  O36      1.0000 0.90230  0.07287  0.24399  Biso   1.000  O
  O37      1.0000 0.07425  0.90260  0.24399  Biso   1.000  O
  O38      1.0000 0.07343  0.78135  0.24399  Biso   1.000  O
  O39      1.0000 0.77804  0.07245  0.07442  Biso   1.000  O
  O40      1.0000 0.90058  0.07214  0.95368  Biso   1.000  O
  O41      1.0000 0.35123  0.34061  0.79954  Biso   1.000  O
  O42      1.0000 0.35051  0.34030  0.67879  Biso   1.000  O
  O43      1.0000 0.52457  0.63140  0.50923  Biso   1.000  O
  O44      1.0000 0.64701  0.51015  0.50923  Biso   1.000  O
  O45      1.0000 0.64687  0.34030  0.67879  Biso   1.000  O
  O46      1.0000 0.52432  0.34061  0.79954  Biso   1.000  O
  O47      1.0000 0.35147  0.63140  0.50923  Biso   1.000  O
  O48      1.0000 0.35066  0.51015  0.50923  Biso   1.000  O
  O49      1.0000 0.52261  0.33988  0.50923  Biso   1.000  O
  O50      1.0000 0.64586  0.33988  0.50923  Biso   1.000  O
  O51      1.0000 0.35248  0.63182  0.67879  Biso   1.000  O
  O52      1.0000 0.35237  0.51088  0.79954  Biso   1.000  O
