data_image0
_cell_length_a       18.3149
_cell_length_b       18.3149
_cell_length_c       18.3149
_cell_angle_alpha    60.3295
_cell_angle_beta     60.3295
_cell_angle_gamma    60.3295

_symmetry_space_group_name_H-M    "P 1"
_symmetry_int_tables_number       1

loop_
  _symmetry_equiv_pos_as_xyz
  'x, y, z'

loop_
  _atom_site_label
  _atom_site_occupancy
  _atom_site_fract_x
  _atom_site_fract_y
  _atom_site_fract_z
  _atom_site_thermal_displace_type
  _atom_site_B_iso_or_equiv
  _atom_site_type_symbol
  C1       1.0000 0.20609  0.20609  0.20609  Biso   1.000  C
  C2       1.0000 0.79391  0.79391  0.79391  Biso   1.000  C
  C3       1.0000 0.20677  0.37952  0.20677  Biso   1.000  C
  C4       1.0000 0.20677  0.20677  0.37952  Biso   1.000  C
  C5       1.0000 0.37952  0.20677  0.20677  Biso   1.000  C
  C6       1.0000 0.62048  0.79323  0.79323  Biso   1.000  C
  C7       1.0000 0.79323  0.79323  0.62048  Biso   1.000  C
  C8       1.0000 0.79323  0.62048  0.79323  Biso   1.000  C
  C9       1.0000 0.04260  0.34350  0.56530  Biso   1.000  C
  C10      1.0000 0.56530  0.04260  0.34350  Biso   1.000  C
  C11      1.0000 0.34350  0.56530  0.04260  Biso   1.000  C
  C12      1.0000 0.65650  0.95740  0.43470  Biso   1.000  C
  C13      1.0000 0.95740  0.43470  0.65650  Biso   1.000  C
  C14      1.0000 0.43470  0.65650  0.95740  Biso   1.000  C
  C15      1.0000 0.95740  0.65650  0.43470  Biso   1.000  C
  C16      1.0000 0.43470  0.95740  0.65650  Biso   1.000  C
  C17      1.0000 0.65650  0.43470  0.95740  Biso   1.000  C
  C18      1.0000 0.34350  0.04260  0.56530  Biso   1.000  C
  C19      1.0000 0.04260  0.56530  0.34350  Biso   1.000  C
  C20      1.0000 0.56530  0.34350  0.04260  Biso   1.000  C
  C21      1.0000 0.04880  0.55860  0.04880  Biso   1.000  C
  C22      1.0000 0.04170  0.34450  0.04170  Biso   1.000  C
  C23      1.0000 0.04880  0.04880  0.55860  Biso   1.000  C
  C24      1.0000 0.04170  0.04170  0.34450  Biso   1.000  C
  C25      1.0000 0.55860  0.04880  0.04880  Biso   1.000  C
  C26      1.0000 0.34450  0.04170  0.04170  Biso   1.000  C
  C27      1.0000 0.44140  0.95120  0.95120  Biso   1.000  C
  C28      1.0000 0.65550  0.95830  0.95830  Biso   1.000  C
  C29      1.0000 0.95120  0.95120  0.44140  Biso   1.000  C
  C30      1.0000 0.95830  0.95830  0.65550  Biso   1.000  C
  C31      1.0000 0.95120  0.44140  0.95120  Biso   1.000  C
  C32      1.0000 0.95830  0.65550  0.95830  Biso   1.000  C
  C33      1.0000 0.02770  0.40510  0.53870  Biso   1.000  C
  C34      1.0000 0.53870  0.02770  0.40510  Biso   1.000  C
  C35      1.0000 0.40510  0.53870  0.02770  Biso   1.000  C
  C36      1.0000 0.59490  0.97230  0.46130  Biso   1.000  C
  C37      1.0000 0.97230  0.46130  0.59490  Biso   1.000  C
  C38      1.0000 0.46130  0.59490  0.97230  Biso   1.000  C
  C39      1.0000 0.97230  0.59490  0.46130  Biso   1.000  C
  C40      1.0000 0.46130  0.97230  0.59490  Biso   1.000  C
  C41      1.0000 0.59490  0.46130  0.97230  Biso   1.000  C
  C42      1.0000 0.40510  0.02770  0.53870  Biso   1.000  C
  C43      1.0000 0.02770  0.53870  0.40510  Biso   1.000  C
  C44      1.0000 0.53870  0.40510  0.02770  Biso   1.000  C
  C45      1.0000 0.11130  0.39010  0.11130  Biso   1.000  C
  C46      1.0000 0.05390  0.44400  0.05390  Biso   1.000  C
  C47      1.0000 0.02940  0.53530  0.02940  Biso   1.000  C
  C48      1.0000 0.02520  0.40600  0.02520  Biso   1.000  C
  C49      1.0000 0.11130  0.11130  0.39010  Biso   1.000  C
  C50      1.0000 0.05390  0.05390  0.44400  Biso   1.000  C
  C51      1.0000 0.02940  0.02940  0.53530  Biso   1.000  C
  C52      1.0000 0.02520  0.02520  0.40600  Biso   1.000  C
  C53      1.0000 0.39010  0.11130  0.11130  Biso   1.000  C
  C54      1.0000 0.44400  0.05390  0.05390  Biso   1.000  C
  C55      1.0000 0.53530  0.02940  0.02940  Biso   1.000  C
  C56      1.0000 0.40600  0.02520  0.02520  Biso   1.000  C
  C57      1.0000 0.60990  0.88870  0.88870  Biso   1.000  C
  C58      1.0000 0.55600  0.94610  0.94610  Biso   1.000  C
  C59      1.0000 0.46470  0.97060  0.97060  Biso   1.000  C
  C60      1.0000 0.59400  0.97480  0.97480  Biso   1.000  C
  C61      1.0000 0.88870  0.88870  0.60990  Biso   1.000  C
  C62      1.0000 0.94610  0.94610  0.55600  Biso   1.000  C
  C63      1.0000 0.97060  0.97060  0.46470  Biso   1.000  C
  C64      1.0000 0.97480  0.97480  0.59400  Biso   1.000  C
  C65      1.0000 0.88870  0.60990  0.88870  Biso   1.000  C
  C66      1.0000 0.94610  0.55600  0.94610  Biso   1.000  C
  C67      1.0000 0.97060  0.46470  0.97060  Biso   1.000  C
  C68      1.0000 0.97480  0.59400  0.97480  Biso   1.000  C
  C69      1.0000 0.11170  0.38940  0.38940  Biso   1.000  C
  C70      1.0000 0.05990  0.44245  0.44245  Biso   1.000  C
  C71      1.0000 0.38940  0.11170  0.38940  Biso   1.000  C
  C72      1.0000 0.44245  0.05990  0.44245  Biso   1.000  C
  C73      1.0000 0.38940  0.38940  0.11170  Biso   1.000  C
  C74      1.0000 0.44245  0.44245  0.05990  Biso   1.000  C
  C75      1.0000 0.61060  0.88830  0.61060  Biso   1.000  C
  C76      1.0000 0.55755  0.94010  0.55755  Biso   1.000  C
  C77      1.0000 0.88830  0.61060  0.61060  Biso   1.000  C
  C78      1.0000 0.94010  0.55755  0.55755  Biso   1.000  C
  C79      1.0000 0.61060  0.61060  0.88830  Biso   1.000  C
  C80      1.0000 0.55755  0.55755  0.94010  Biso   1.000  C
  C81      1.0000 0.13529  0.42759  0.30119  Biso   1.000  C
  C82      1.0000 0.30119  0.13529  0.42759  Biso   1.000  C
  C83      1.0000 0.42759  0.30119  0.13529  Biso   1.000  C
  C84      1.0000 0.57241  0.86471  0.69881  Biso   1.000  C
  C85      1.0000 0.86471  0.69881  0.57241  Biso   1.000  C
  C86      1.0000 0.69881  0.57241  0.86471  Biso   1.000  C
  C87      1.0000 0.86471  0.57241  0.69881  Biso   1.000  C
  C88      1.0000 0.69881  0.86471  0.57241  Biso   1.000  C
  C89      1.0000 0.57241  0.69881  0.86471  Biso   1.000  C
  C90      1.0000 0.42759  0.13529  0.30119  Biso   1.000  C
  C91      1.0000 0.13529  0.30119  0.42759  Biso   1.000  C
  C92      1.0000 0.30119  0.42759  0.13529  Biso   1.000  C
  C93      1.0000 0.25153  0.25153  0.25153  Biso   1.000  C
  C94      1.0000 0.74847  0.74847  0.74847  Biso   1.000  C
  C95      1.0000 0.13410  0.30220  0.13410  Biso   1.000  C
  C96      1.0000 0.13380  0.42820  0.13380  Biso   1.000  C
  C97      1.0000 0.13410  0.13410  0.30220  Biso   1.000  C
  C98      1.0000 0.13380  0.13380  0.42820  Biso   1.000  C
  C99      1.0000 0.30220  0.13410  0.13410  Biso   1.000  C
  C100     1.0000 0.42820  0.13380  0.13380  Biso   1.000  C
  C101     1.0000 0.69780  0.86590  0.86590  Biso   1.000  C
  C102     1.0000 0.57180  0.86620  0.86620  Biso   1.000  C
  C103     1.0000 0.86590  0.86590  0.69780  Biso   1.000  C
  C104     1.0000 0.86620  0.86620  0.57180  Biso   1.000  C
  C105     1.0000 0.86590  0.69780  0.86590  Biso   1.000  C
  C106     1.0000 0.86620  0.57180  0.86620  Biso   1.000  C
  O1       1.0000 1.00000  1.00000  0.00000  Biso   1.000  O
  O2       1.0000 0.00102  0.00043  0.17187  Biso   1.000  O
  O3       1.0000 0.82557  0.00043  0.17187  Biso   1.000  O
  O4       1.0000 0.99986  0.82785  0.17187  Biso   1.000  O
  O5       1.0000 0.42426  0.41214  0.75228  Biso   1.000  O
  O6       1.0000 0.42325  0.41169  0.58041  Biso   1.000  O
  O7       1.0000 0.42440  0.58428  0.58042  Biso   1.000  O
  O8       1.0000 0.59870  0.41169  0.58041  Biso   1.000  O
  O9       1.0000 0.16885  0.16236  0.80623  Biso   1.000  O
  O10      1.0000 0.16429  0.16042  0.03525  Biso   1.000  O
  O11      1.0000 0.64861  0.86364  0.33154  Biso   1.000  O
  O12      1.0000 0.86679  0.63784  0.33154  Biso   1.000  O
  O13      1.0000 0.16749  0.63709  0.03525  Biso   1.000  O
  O14      1.0000 0.16685  0.86483  0.80623  Biso   1.000  O
  O15      1.0000 0.65061  0.16116  0.33154  Biso   1.000  O
  O16      1.0000 0.86358  0.16116  0.33154  Biso   1.000  O
  O17      1.0000 0.16404  0.86364  0.33154  Biso   1.000  O
  O18      1.0000 0.16925  0.63784  0.33154  Biso   1.000  O
  O19      1.0000 0.64886  0.16042  0.03525  Biso   1.000  O
  O20      1.0000 0.86639  0.16236  0.80623  Biso   1.000  O
  O21      1.0000 0.25542  0.24977  0.94604  Biso   1.000  O
  O22      1.0000 0.25998  0.25171  0.71703  Biso   1.000  O
  O23      1.0000 0.55748  0.77429  0.42074  Biso   1.000  O
  O24      1.0000 0.77566  0.54849  0.42074  Biso   1.000  O
  O25      1.0000 0.77541  0.25171  0.71703  Biso   1.000  O
  O26      1.0000 0.55788  0.24977  0.94604  Biso   1.000  O
  O27      1.0000 0.25502  0.77429  0.42074  Biso   1.000  O
  O28      1.0000 0.26023  0.54849  0.42074  Biso   1.000  O
  O29      1.0000 0.56068  0.25096  0.42074  Biso   1.000  O
  O30      1.0000 0.77365  0.25096  0.42074  Biso   1.000  O
  O31      1.0000 0.25677  0.77503  0.71703  Biso   1.000  O
  O32      1.0000 0.25742  0.54730  0.94604  Biso   1.000  O
  O33      1.0000 0.18754  0.18054  0.83278  Biso   1.000  O
  O34      1.0000 0.18245  0.17838  0.97263  Biso   1.000  O
  O35      1.0000 0.67539  0.80080  0.34957  Biso   1.000  O
  O36      1.0000 0.80315  0.66454  0.34957  Biso   1.000  O
  O37      1.0000 0.18572  0.66359  0.97263  Biso   1.000  O
  O38      1.0000 0.18499  0.80202  0.83278  Biso   1.000  O
  O39      1.0000 0.67794  0.17932  0.34957  Biso   1.000  O
  O40      1.0000 0.79989  0.17932  0.34957  Biso   1.000  O
  O41      1.0000 0.18213  0.80080  0.34957  Biso   1.000  O
  O42      1.0000 0.18795  0.66454  0.34957  Biso   1.000  O
  O43      1.0000 0.67571  0.17838  0.97263  Biso   1.000  O
  O44      1.0000 0.80275  0.18054  0.83278  Biso   1.000  O
  O45      1.0000 0.23673  0.23159  0.91950  Biso   1.000  O
  O46      1.0000 0.24182  0.23375  0.77965  Biso   1.000  O
  O47      1.0000 0.62111  0.74759  0.40270  Biso   1.000  O
  O48      1.0000 0.74888  0.61132  0.40270  Biso   1.000  O
  O49      1.0000 0.74856  0.23375  0.77965  Biso   1.000  O
  O50      1.0000 0.62152  0.23159  0.91950  Biso   1.000  O
  O51      1.0000 0.23632  0.74759  0.40270  Biso   1.000  O
  O52      1.0000 0.24213  0.61132  0.40270  Biso   1.000  O
  O53      1.0000 0.62438  0.23280  0.40270  Biso   1.000  O
  O54      1.0000 0.74633  0.23280  0.40270  Biso   1.000  O
  O55      1.0000 0.23855  0.74853  0.77965  Biso   1.000  O
  O56      1.0000 0.23927  0.61011  0.91950  Biso   1.000  O
  O57      1.0000 0.09654  0.09436  0.99194  Biso   1.000  O
  O58      1.0000 0.15489  0.15157  0.93483  Biso   1.000  O
  O59      1.0000 0.81669  0.81999  0.26586  Biso   1.000  O
  O60      1.0000 0.75834  0.76278  0.32297  Biso   1.000  O
  O61      1.0000 0.09469  0.81930  0.99194  Biso   1.000  O
  O62      1.0000 0.15227  0.76181  0.93483  Biso   1.000  O
  O63      1.0000 0.81854  0.09505  0.26586  Biso   1.000  O
  O64      1.0000 0.76097  0.15254  0.32297  Biso   1.000  O
  O65      1.0000 0.09631  0.81999  0.26586  Biso   1.000  O
  O66      1.0000 0.15457  0.76278  0.32297  Biso   1.000  O
  O67      1.0000 0.81692  0.09436  0.99194  Biso   1.000  O
  O68      1.0000 0.75867  0.15157  0.93483  Biso   1.000  O
  O69      1.0000 0.32772  0.31776  0.76034  Biso   1.000  O
  O70      1.0000 0.26938  0.26056  0.81745  Biso   1.000  O
  O71      1.0000 0.60757  0.59214  0.48642  Biso   1.000  O
  O72      1.0000 0.66592  0.64934  0.42930  Biso   1.000  O
  O73      1.0000 0.60734  0.31776  0.76034  Biso   1.000  O
  O74      1.0000 0.66560  0.26056  0.81745  Biso   1.000  O
  O75      1.0000 0.32795  0.59214  0.48642  Biso   1.000  O
  O76      1.0000 0.26970  0.64934  0.42930  Biso   1.000  O
  O77      1.0000 0.60572  0.31708  0.48642  Biso   1.000  O
  O78      1.0000 0.66330  0.25958  0.42930  Biso   1.000  O
  O79      1.0000 0.32958  0.59283  0.76034  Biso   1.000  O
  O80      1.0000 0.27200  0.65032  0.81745  Biso   1.000  O
  O81      1.0000 0.95662  0.95717  0.12890  Biso   1.000  O
  O82      1.0000 0.46765  0.45495  0.62338  Biso   1.000  O
  O83      1.0000 0.07367  0.07213  0.95372  Biso   1.000  O
  O84      1.0000 0.07438  0.07243  0.07425  Biso   1.000  O
  O85      1.0000 0.77810  0.90259  0.24382  Biso   1.000  O
  O86      1.0000 0.90033  0.78155  0.24382  Biso   1.000  O
  O87      1.0000 0.07242  0.78112  0.07425  Biso   1.000  O
  O88      1.0000 0.07252  0.90186  0.95372  Biso   1.000  O
  O89      1.0000 0.77925  0.07286  0.24382  Biso   1.000  O
  O90      1.0000 0.90229  0.07286  0.24382  Biso   1.000  O
  O91      1.0000 0.07424  0.90259  0.24382  Biso   1.000  O
  O92      1.0000 0.07342  0.78155  0.24382  Biso   1.000  O
  O93      1.0000 0.77824  0.07243  0.07425  Biso   1.000  O
  O94      1.0000 0.90057  0.07213  0.95372  Biso   1.000  O
  O95      1.0000 0.35060  0.34000  0.79856  Biso   1.000  O
  O96      1.0000 0.34989  0.33969  0.67803  Biso   1.000  O
  O97      1.0000 0.52394  0.63058  0.50846  Biso   1.000  O
  O98      1.0000 0.64617  0.50954  0.50846  Biso   1.000  O
  O99      1.0000 0.64602  0.33969  0.67803  Biso   1.000  O
  O100     1.0000 0.52370  0.34000  0.79856  Biso   1.000  O
  O101     1.0000 0.35085  0.63058  0.50846  Biso   1.000  O
  O102     1.0000 0.35003  0.50954  0.50846  Biso   1.000  O
  O103     1.0000 0.52198  0.33927  0.50846  Biso   1.000  O
  O104     1.0000 0.64502  0.33927  0.50846  Biso   1.000  O
  O105     1.0000 0.35185  0.63100  0.67803  Biso   1.000  O
  O106     1.0000 0.35175  0.51027  0.79856  Biso   1.000  O
