data_image0
_cell_length_a       18.3149
_cell_length_b       18.3149
_cell_length_c       18.3149
_cell_angle_alpha    60.3295
_cell_angle_beta     60.3295
_cell_angle_gamma    60.3295

_symmetry_space_group_name_H-M    "P 1"
_symmetry_int_tables_number       1

loop_
  _symmetry_equiv_pos_as_xyz
  'x, y, z'

loop_
  _atom_site_label
  _atom_site_occupancy
  _atom_site_fract_x
  _atom_site_fract_y
  _atom_site_fract_z
  _atom_site_thermal_displace_type
  _atom_site_B_iso_or_equiv
  _atom_site_type_symbol
  C1       1.0000 0.20609  0.20609  0.20609  Biso   1.000  C
  C2       1.0000 0.79391  0.79391  0.79391  Biso   1.000  C
  C3       1.0000 0.20677  0.37952  0.20677  Biso   1.000  C
  C4       1.0000 0.20677  0.20677  0.37952  Biso   1.000  C
  C5       1.0000 0.37952  0.20677  0.20677  Biso   1.000  C
  C6       1.0000 0.62048  0.79323  0.79323  Biso   1.000  C
  C7       1.0000 0.79323  0.79323  0.62048  Biso   1.000  C
  C8       1.0000 0.79323  0.62048  0.79323  Biso   1.000  C
  C9       1.0000 0.04260  0.34350  0.56530  Biso   1.000  C
  C10      1.0000 0.56530  0.04260  0.34350  Biso   1.000  C
  C11      1.0000 0.34350  0.56530  0.04260  Biso   1.000  C
  C12      1.0000 0.65650  0.95740  0.43470  Biso   1.000  C
  C13      1.0000 0.95740  0.43470  0.65650  Biso   1.000  C
  C14      1.0000 0.43470  0.65650  0.95740  Biso   1.000  C
  C15      1.0000 0.95740  0.65650  0.43470  Biso   1.000  C
  C16      1.0000 0.43470  0.95740  0.65650  Biso   1.000  C
  C17      1.0000 0.65650  0.43470  0.95740  Biso   1.000  C
  C18      1.0000 0.34350  0.04260  0.56530  Biso   1.000  C
  C19      1.0000 0.04260  0.56530  0.34350  Biso   1.000  C
  C20      1.0000 0.56530  0.34350  0.04260  Biso   1.000  C
  C21      1.0000 0.04880  0.55860  0.04880  Biso   1.000  C
  C22      1.0000 0.04170  0.34450  0.04170  Biso   1.000  C
  C23      1.0000 0.04880  0.04880  0.55860  Biso   1.000  C
  C24      1.0000 0.04170  0.04170  0.34450  Biso   1.000  C
  C25      1.0000 0.55860  0.04880  0.04880  Biso   1.000  C
  C26      1.0000 0.34450  0.04170  0.04170  Biso   1.000  C
  C27      1.0000 0.44140  0.95120  0.95120  Biso   1.000  C
  C28      1.0000 0.65550  0.95830  0.95830  Biso   1.000  C
  C29      1.0000 0.95120  0.95120  0.44140  Biso   1.000  C
  C30      1.0000 0.95830  0.95830  0.65550  Biso   1.000  C
  C31      1.0000 0.95120  0.44140  0.95120  Biso   1.000  C
  C32      1.0000 0.95830  0.65550  0.95830  Biso   1.000  C
  C33      1.0000 0.02770  0.40510  0.53870  Biso   1.000  C
  C34      1.0000 0.53870  0.02770  0.40510  Biso   1.000  C
  C35      1.0000 0.40510  0.53870  0.02770  Biso   1.000  C
  C36      1.0000 0.59490  0.97230  0.46130  Biso   1.000  C
  C37      1.0000 0.97230  0.46130  0.59490  Biso   1.000  C
  C38      1.0000 0.46130  0.59490  0.97230  Biso   1.000  C
  C39      1.0000 0.97230  0.59490  0.46130  Biso   1.000  C
  C40      1.0000 0.46130  0.97230  0.59490  Biso   1.000  C
  C41      1.0000 0.59490  0.46130  0.97230  Biso   1.000  C
  C42      1.0000 0.40510  0.02770  0.53870  Biso   1.000  C
  C43      1.0000 0.02770  0.53870  0.40510  Biso   1.000  C
  C44      1.0000 0.53870  0.40510  0.02770  Biso   1.000  C
  C45      1.0000 0.11130  0.39010  0.11130  Biso   1.000  C
  C46      1.0000 0.05390  0.44400  0.05390  Biso   1.000  C
  C47      1.0000 0.02940  0.53530  0.02940  Biso   1.000  C
  C48      1.0000 0.02520  0.40600  0.02520  Biso   1.000  C
  C49      1.0000 0.11130  0.11130  0.39010  Biso   1.000  C
  C50      1.0000 0.05390  0.05390  0.44400  Biso   1.000  C
  C51      1.0000 0.02940  0.02940  0.53530  Biso   1.000  C
  C52      1.0000 0.02520  0.02520  0.40600  Biso   1.000  C
  C53      1.0000 0.39010  0.11130  0.11130  Biso   1.000  C
  C54      1.0000 0.44400  0.05390  0.05390  Biso   1.000  C
  C55      1.0000 0.53530  0.02940  0.02940  Biso   1.000  C
  C56      1.0000 0.40600  0.02520  0.02520  Biso   1.000  C
  C57      1.0000 0.60990  0.88870  0.88870  Biso   1.000  C
  C58      1.0000 0.55600  0.94610  0.94610  Biso   1.000  C
  C59      1.0000 0.46470  0.97060  0.97060  Biso   1.000  C
  C60      1.0000 0.59400  0.97480  0.97480  Biso   1.000  C
  C61      1.0000 0.88870  0.88870  0.60990  Biso   1.000  C
  C62      1.0000 0.94610  0.94610  0.55600  Biso   1.000  C
  C63      1.0000 0.97060  0.97060  0.46470  Biso   1.000  C
  C64      1.0000 0.97480  0.97480  0.59400  Biso   1.000  C
  C65      1.0000 0.88870  0.60990  0.88870  Biso   1.000  C
  C66      1.0000 0.94610  0.55600  0.94610  Biso   1.000  C
  C67      1.0000 0.97060  0.46470  0.97060  Biso   1.000  C
  C68      1.0000 0.97480  0.59400  0.97480  Biso   1.000  C
  C69      1.0000 0.11170  0.38940  0.38940  Biso   1.000  C
  C70      1.0000 0.05990  0.44245  0.44245  Biso   1.000  C
  C71      1.0000 0.38940  0.11170  0.38940  Biso   1.000  C
  C72      1.0000 0.44245  0.05990  0.44245  Biso   1.000  C
  C73      1.0000 0.38940  0.38940  0.11170  Biso   1.000  C
  C74      1.0000 0.44245  0.44245  0.05990  Biso   1.000  C
  C75      1.0000 0.61060  0.88830  0.61060  Biso   1.000  C
  C76      1.0000 0.55755  0.94010  0.55755  Biso   1.000  C
  C77      1.0000 0.88830  0.61060  0.61060  Biso   1.000  C
  C78      1.0000 0.94010  0.55755  0.55755  Biso   1.000  C
  C79      1.0000 0.61060  0.61060  0.88830  Biso   1.000  C
  C80      1.0000 0.55755  0.55755  0.94010  Biso   1.000  C
  C81      1.0000 0.13529  0.42759  0.30119  Biso   1.000  C
  C82      1.0000 0.30119  0.13529  0.42759  Biso   1.000  C
  C83      1.0000 0.42759  0.30119  0.13529  Biso   1.000  C
  C84      1.0000 0.57241  0.86471  0.69881  Biso   1.000  C
  C85      1.0000 0.86471  0.69881  0.57241  Biso   1.000  C
  C86      1.0000 0.69881  0.57241  0.86471  Biso   1.000  C
  C87      1.0000 0.86471  0.57241  0.69881  Biso   1.000  C
  C88      1.0000 0.69881  0.86471  0.57241  Biso   1.000  C
  C89      1.0000 0.57241  0.69881  0.86471  Biso   1.000  C
  C90      1.0000 0.42759  0.13529  0.30119  Biso   1.000  C
  C91      1.0000 0.13529  0.30119  0.42759  Biso   1.000  C
  C92      1.0000 0.30119  0.42759  0.13529  Biso   1.000  C
  C93      1.0000 0.25153  0.25153  0.25153  Biso   1.000  C
  C94      1.0000 0.74847  0.74847  0.74847  Biso   1.000  C
  C95      1.0000 0.13410  0.30220  0.13410  Biso   1.000  C
  C96      1.0000 0.13380  0.42820  0.13380  Biso   1.000  C
  C97      1.0000 0.13410  0.13410  0.30220  Biso   1.000  C
  C98      1.0000 0.13380  0.13380  0.42820  Biso   1.000  C
  C99      1.0000 0.30220  0.13410  0.13410  Biso   1.000  C
  C100     1.0000 0.42820  0.13380  0.13380  Biso   1.000  C
  C101     1.0000 0.69780  0.86590  0.86590  Biso   1.000  C
  C102     1.0000 0.57180  0.86620  0.86620  Biso   1.000  C
  C103     1.0000 0.86590  0.86590  0.69780  Biso   1.000  C
  C104     1.0000 0.86620  0.86620  0.57180  Biso   1.000  C
  C105     1.0000 0.86590  0.69780  0.86590  Biso   1.000  C
  C106     1.0000 0.86620  0.57180  0.86620  Biso   1.000  C
  O1       1.0000 0.00000  0.00000  1.00000  Biso   1.000  O
  O2       1.0000 0.00102  0.00043  0.17190  Biso   1.000  O
  O3       1.0000 0.82554  0.00043  0.17190  Biso   1.000  O
  O4       1.0000 0.99986  0.82782  0.17190  Biso   1.000  O
  O5       1.0000 0.42410  0.41197  0.75217  Biso   1.000  O
  O6       1.0000 0.42309  0.41153  0.58027  Biso   1.000  O
  O7       1.0000 0.42425  0.58415  0.58027  Biso   1.000  O
  O8       1.0000 0.59856  0.41153  0.58027  Biso   1.000  O
  O9       1.0000 0.16888  0.16239  0.80635  Biso   1.000  O
  O10      1.0000 0.16432  0.16045  0.03480  Biso   1.000  O
  O11      1.0000 0.64870  0.86316  0.33160  Biso   1.000  O
  O12      1.0000 0.86631  0.63793  0.33160  Biso   1.000  O
  O13      1.0000 0.16752  0.63718  0.03480  Biso   1.000  O
  O14      1.0000 0.16688  0.86436  0.80635  Biso   1.000  O
  O15      1.0000 0.65071  0.16120  0.33160  Biso   1.000  O
  O16      1.0000 0.86310  0.16120  0.33160  Biso   1.000  O
  O17      1.0000 0.16407  0.86316  0.33160  Biso   1.000  O
  O18      1.0000 0.16928  0.63793  0.33160  Biso   1.000  O
  O19      1.0000 0.64895  0.16045  0.03480  Biso   1.000  O
  O20      1.0000 0.86591  0.16239  0.80635  Biso   1.000  O
  O21      1.0000 0.25522  0.24958  0.94582  Biso   1.000  O
  O22      1.0000 0.25979  0.25151  0.71737  Biso   1.000  O
  O23      1.0000 0.55779  0.77404  0.42058  Biso   1.000  O
  O24      1.0000 0.77540  0.54880  0.42058  Biso   1.000  O
  O25      1.0000 0.77515  0.25151  0.71737  Biso   1.000  O
  O26      1.0000 0.55819  0.24958  0.94582  Biso   1.000  O
  O27      1.0000 0.25482  0.77404  0.42058  Biso   1.000  O
  O28      1.0000 0.26004  0.54880  0.42058  Biso   1.000  O
  O29      1.0000 0.56100  0.25077  0.42058  Biso   1.000  O
  O30      1.0000 0.77340  0.25077  0.42058  Biso   1.000  O
  O31      1.0000 0.25658  0.77478  0.71737  Biso   1.000  O
  O32      1.0000 0.25723  0.54761  0.94582  Biso   1.000  O
  O33      1.0000 0.18755  0.18054  0.83297  Biso   1.000  O
  O34      1.0000 0.18246  0.17838  0.97216  Biso   1.000  O
  O35      1.0000 0.67555  0.80031  0.34961  Biso   1.000  O
  O36      1.0000 0.80265  0.66470  0.34961  Biso   1.000  O
  O37      1.0000 0.18572  0.66375  0.97216  Biso   1.000  O
  O38      1.0000 0.18500  0.80152  0.83297  Biso   1.000  O
  O39      1.0000 0.67810  0.17933  0.34961  Biso   1.000  O
  O40      1.0000 0.79938  0.17933  0.34961  Biso   1.000  O
  O41      1.0000 0.18214  0.80031  0.34961  Biso   1.000  O
  O42      1.0000 0.18795  0.66470  0.34961  Biso   1.000  O
  O43      1.0000 0.67587  0.17838  0.97216  Biso   1.000  O
  O44      1.0000 0.80224  0.18054  0.83297  Biso   1.000  O
  O45      1.0000 0.23655  0.23142  0.91921  Biso   1.000  O
  O46      1.0000 0.24165  0.23358  0.78001  Biso   1.000  O
  O47      1.0000 0.62145  0.74727  0.40256  Biso   1.000  O
  O48      1.0000 0.74855  0.61166  0.40256  Biso   1.000  O
  O49      1.0000 0.74823  0.23358  0.78001  Biso   1.000  O
  O50      1.0000 0.62186  0.23142  0.91921  Biso   1.000  O
  O51      1.0000 0.23615  0.74727  0.40256  Biso   1.000  O
  O52      1.0000 0.24196  0.61166  0.40256  Biso   1.000  O
  O53      1.0000 0.62472  0.23264  0.40256  Biso   1.000  O
  O54      1.0000 0.74600  0.23264  0.40256  Biso   1.000  O
  O55      1.0000 0.23838  0.74821  0.78001  Biso   1.000  O
  O56      1.0000 0.23910  0.61045  0.91921  Biso   1.000  O
  O57      1.0000 0.09640  0.09422  0.99209  Biso   1.000  O
  O58      1.0000 0.15498  0.15165  0.93476  Biso   1.000  O
  O59      1.0000 0.81682  0.82011  0.26575  Biso   1.000  O
  O60      1.0000 0.75824  0.76268  0.32308  Biso   1.000  O
  O61      1.0000 0.09455  0.81942  0.99209  Biso   1.000  O
  O62      1.0000 0.15235  0.76171  0.93476  Biso   1.000  O
  O63      1.0000 0.81867  0.09491  0.26575  Biso   1.000  O
  O64      1.0000 0.76087  0.15263  0.32308  Biso   1.000  O
  O65      1.0000 0.09617  0.82011  0.26575  Biso   1.000  O
  O66      1.0000 0.15465  0.76268  0.32308  Biso   1.000  O
  O67      1.0000 0.81705  0.09422  0.99209  Biso   1.000  O
  O68      1.0000 0.75857  0.15165  0.93476  Biso   1.000  O
  O69      1.0000 0.32770  0.31774  0.76008  Biso   1.000  O
  O70      1.0000 0.26912  0.26031  0.81741  Biso   1.000  O
  O71      1.0000 0.60728  0.59185  0.48642  Biso   1.000  O
  O72      1.0000 0.66586  0.64928  0.42909  Biso   1.000  O
  O73      1.0000 0.60705  0.31774  0.76008  Biso   1.000  O
  O74      1.0000 0.66553  0.26031  0.81741  Biso   1.000  O
  O75      1.0000 0.32793  0.59185  0.48642  Biso   1.000  O
  O76      1.0000 0.26945  0.64928  0.42909  Biso   1.000  O
  O77      1.0000 0.60544  0.31705  0.48642  Biso   1.000  O
  O78      1.0000 0.66323  0.25934  0.42909  Biso   1.000  O
  O79      1.0000 0.32955  0.59254  0.76008  Biso   1.000  O
  O80      1.0000 0.27175  0.65026  0.81741  Biso   1.000  O
  O81      1.0000 0.95661  0.95717  0.12892  Biso   1.000  O
  O82      1.0000 0.46749  0.45480  0.62325  Biso   1.000  O
  O83      1.0000 0.07354  0.07201  0.95391  Biso   1.000  O
  O84      1.0000 0.07426  0.07231  0.07433  Biso   1.000  O
  O85      1.0000 0.77827  0.90263  0.24372  Biso   1.000  O
  O86      1.0000 0.90038  0.78171  0.24372  Biso   1.000  O
  O87      1.0000 0.07230  0.78129  0.07433  Biso   1.000  O
  O88      1.0000 0.07240  0.90191  0.95391  Biso   1.000  O
  O89      1.0000 0.77941  0.07274  0.24372  Biso   1.000  O
  O90      1.0000 0.90234  0.07274  0.24372  Biso   1.000  O
  O91      1.0000 0.07411  0.90263  0.24372  Biso   1.000  O
  O92      1.0000 0.07330  0.78171  0.24372  Biso   1.000  O
  O93      1.0000 0.77841  0.07231  0.07433  Biso   1.000  O
  O94      1.0000 0.90062  0.07201  0.95391  Biso   1.000  O
  O95      1.0000 0.35056  0.33996  0.79826  Biso   1.000  O
  O96      1.0000 0.34985  0.33965  0.67784  Biso   1.000  O
  O97      1.0000 0.52372  0.63025  0.50845  Biso   1.000  O
  O98      1.0000 0.64584  0.50933  0.50845  Biso   1.000  O
  O99      1.0000 0.64569  0.33965  0.67784  Biso   1.000  O
  O100     1.0000 0.52348  0.33996  0.79826  Biso   1.000  O
  O101     1.0000 0.35080  0.63025  0.50845  Biso   1.000  O
  O102     1.0000 0.34999  0.50933  0.50845  Biso   1.000  O
  O103     1.0000 0.52177  0.33923  0.50845  Biso   1.000  O
  O104     1.0000 0.64469  0.33923  0.50845  Biso   1.000  O
  O105     1.0000 0.35180  0.63068  0.67784  Biso   1.000  O
  O106     1.0000 0.35170  0.51006  0.79826  Biso   1.000  O
