data_image0
_cell_length_a       18.3149
_cell_length_b       18.3149
_cell_length_c       18.3149
_cell_angle_alpha    60.3295
_cell_angle_beta     60.3295
_cell_angle_gamma    60.3295

_symmetry_space_group_name_H-M    "P 1"
_symmetry_int_tables_number       1

loop_
  _symmetry_equiv_pos_as_xyz
  'x, y, z'

loop_
  _atom_site_label
  _atom_site_occupancy
  _atom_site_fract_x
  _atom_site_fract_y
  _atom_site_fract_z
  _atom_site_thermal_displace_type
  _atom_site_B_iso_or_equiv
  _atom_site_type_symbol
  Zn1      1.0000 0.20609  0.20609  0.20609  Biso   1.000  Zn
  Zn2      1.0000 0.79391  0.79391  0.79391  Biso   1.000  Zn
  Zn3      1.0000 0.20677  0.37952  0.20677  Biso   1.000  Zn
  Zn4      1.0000 0.20677  0.20677  0.37952  Biso   1.000  Zn
  Zn5      1.0000 0.37952  0.20677  0.20677  Biso   1.000  Zn
  Zn6      1.0000 0.62048  0.79323  0.79323  Biso   1.000  Zn
  Zn7      1.0000 0.79323  0.79323  0.62048  Biso   1.000  Zn
  Zn8      1.0000 0.79323  0.62048  0.79323  Biso   1.000  Zn
  H1       1.0000 0.04260  0.34350  0.56530  Biso   1.000  H
  H2       1.0000 0.56530  0.04260  0.34350  Biso   1.000  H
  H3       1.0000 0.34350  0.56530  0.04260  Biso   1.000  H
  H4       1.0000 0.65650  0.95740  0.43470  Biso   1.000  H
  H5       1.0000 0.95740  0.43470  0.65650  Biso   1.000  H
  H6       1.0000 0.43470  0.65650  0.95740  Biso   1.000  H
  H7       1.0000 0.95740  0.65650  0.43470  Biso   1.000  H
  H8       1.0000 0.43470  0.95740  0.65650  Biso   1.000  H
  H9       1.0000 0.65650  0.43470  0.95740  Biso   1.000  H
  H10      1.0000 0.34350  0.04260  0.56530  Biso   1.000  H
  H11      1.0000 0.04260  0.56530  0.34350  Biso   1.000  H
  H12      1.0000 0.56530  0.34350  0.04260  Biso   1.000  H
  H13      1.0000 0.04880  0.55860  0.04880  Biso   1.000  H
  H14      1.0000 0.04170  0.34450  0.04170  Biso   1.000  H
  H15      1.0000 0.04880  0.04880  0.55860  Biso   1.000  H
  H16      1.0000 0.04170  0.04170  0.34450  Biso   1.000  H
  H17      1.0000 0.55860  0.04880  0.04880  Biso   1.000  H
  H18      1.0000 0.34450  0.04170  0.04170  Biso   1.000  H
  H19      1.0000 0.44140  0.95120  0.95120  Biso   1.000  H
  H20      1.0000 0.65550  0.95830  0.95830  Biso   1.000  H
  H21      1.0000 0.95120  0.95120  0.44140  Biso   1.000  H
  H22      1.0000 0.95830  0.95830  0.65550  Biso   1.000  H
  H23      1.0000 0.95120  0.44140  0.95120  Biso   1.000  H
  H24      1.0000 0.95830  0.65550  0.95830  Biso   1.000  H
  C1       1.0000 0.02770  0.40510  0.53870  Biso   1.000  C
  C2       1.0000 0.53870  0.02770  0.40510  Biso   1.000  C
  C3       1.0000 0.40510  0.53870  0.02770  Biso   1.000  C
  C4       1.0000 0.59490  0.97230  0.46130  Biso   1.000  C
  C5       1.0000 0.97230  0.46130  0.59490  Biso   1.000  C
  C6       1.0000 0.46130  0.59490  0.97230  Biso   1.000  C
  C7       1.0000 0.97230  0.59490  0.46130  Biso   1.000  C
  C8       1.0000 0.46130  0.97230  0.59490  Biso   1.000  C
  C9       1.0000 0.59490  0.46130  0.97230  Biso   1.000  C
  C10      1.0000 0.40510  0.02770  0.53870  Biso   1.000  C
  C11      1.0000 0.02770  0.53870  0.40510  Biso   1.000  C
  C12      1.0000 0.53870  0.40510  0.02770  Biso   1.000  C
  C13      1.0000 0.11130  0.39010  0.11130  Biso   1.000  C
  C14      1.0000 0.05390  0.44400  0.05390  Biso   1.000  C
  C15      1.0000 0.02940  0.53530  0.02940  Biso   1.000  C
  C16      1.0000 0.02520  0.40600  0.02520  Biso   1.000  C
  C17      1.0000 0.11130  0.11130  0.39010  Biso   1.000  C
  C18      1.0000 0.05390  0.05390  0.44400  Biso   1.000  C
  C19      1.0000 0.02940  0.02940  0.53530  Biso   1.000  C
  C20      1.0000 0.02520  0.02520  0.40600  Biso   1.000  C
  C21      1.0000 0.39010  0.11130  0.11130  Biso   1.000  C
  C22      1.0000 0.44400  0.05390  0.05390  Biso   1.000  C
  C23      1.0000 0.53530  0.02940  0.02940  Biso   1.000  C
  C24      1.0000 0.40600  0.02520  0.02520  Biso   1.000  C
  C25      1.0000 0.60990  0.88870  0.88870  Biso   1.000  C
  C26      1.0000 0.55600  0.94610  0.94610  Biso   1.000  C
  C27      1.0000 0.46470  0.97060  0.97060  Biso   1.000  C
  C28      1.0000 0.59400  0.97480  0.97480  Biso   1.000  C
  C29      1.0000 0.88870  0.88870  0.60990  Biso   1.000  C
  C30      1.0000 0.94610  0.94610  0.55600  Biso   1.000  C
  C31      1.0000 0.97060  0.97060  0.46470  Biso   1.000  C
  C32      1.0000 0.97480  0.97480  0.59400  Biso   1.000  C
  C33      1.0000 0.88870  0.60990  0.88870  Biso   1.000  C
  C34      1.0000 0.94610  0.55600  0.94610  Biso   1.000  C
  C35      1.0000 0.97060  0.46470  0.97060  Biso   1.000  C
  C36      1.0000 0.97480  0.59400  0.97480  Biso   1.000  C
  C37      1.0000 0.11170  0.38940  0.38940  Biso   1.000  C
  C38      1.0000 0.05990  0.44245  0.44245  Biso   1.000  C
  C39      1.0000 0.38940  0.11170  0.38940  Biso   1.000  C
  C40      1.0000 0.44245  0.05990  0.44245  Biso   1.000  C
  C41      1.0000 0.38940  0.38940  0.11170  Biso   1.000  C
  C42      1.0000 0.44245  0.44245  0.05990  Biso   1.000  C
  C43      1.0000 0.61060  0.88830  0.61060  Biso   1.000  C
  C44      1.0000 0.55755  0.94010  0.55755  Biso   1.000  C
  C45      1.0000 0.88830  0.61060  0.61060  Biso   1.000  C
  C46      1.0000 0.94010  0.55755  0.55755  Biso   1.000  C
  C47      1.0000 0.61060  0.61060  0.88830  Biso   1.000  C
  C48      1.0000 0.55755  0.55755  0.94010  Biso   1.000  C
  O1       1.0000 0.13529  0.42759  0.30119  Biso   1.000  O
  O2       1.0000 0.30119  0.13529  0.42759  Biso   1.000  O
  O3       1.0000 0.42759  0.30119  0.13529  Biso   1.000  O
  O4       1.0000 0.57241  0.86471  0.69881  Biso   1.000  O
  O5       1.0000 0.86471  0.69881  0.57241  Biso   1.000  O
  O6       1.0000 0.69881  0.57241  0.86471  Biso   1.000  O
  O7       1.0000 0.86471  0.57241  0.69881  Biso   1.000  O
  O8       1.0000 0.69881  0.86471  0.57241  Biso   1.000  O
  O9       1.0000 0.57241  0.69881  0.86471  Biso   1.000  O
  O10      1.0000 0.42759  0.13529  0.30119  Biso   1.000  O
  O11      1.0000 0.13529  0.30119  0.42759  Biso   1.000  O
  O12      1.0000 0.30119  0.42759  0.13529  Biso   1.000  O
  O13      1.0000 0.25153  0.25153  0.25153  Biso   1.000  O
  O14      1.0000 0.74847  0.74847  0.74847  Biso   1.000  O
  O15      1.0000 0.13410  0.30220  0.13410  Biso   1.000  O
  O16      1.0000 0.13380  0.42820  0.13380  Biso   1.000  O
  O17      1.0000 0.13410  0.13410  0.30220  Biso   1.000  O
  O18      1.0000 0.13380  0.13380  0.42820  Biso   1.000  O
  O19      1.0000 0.30220  0.13410  0.13410  Biso   1.000  O
  O20      1.0000 0.42820  0.13380  0.13380  Biso   1.000  O
  O21      1.0000 0.69780  0.86590  0.86590  Biso   1.000  O
  O22      1.0000 0.57180  0.86620  0.86620  Biso   1.000  O
  O23      1.0000 0.86590  0.86590  0.69780  Biso   1.000  O
  O24      1.0000 0.86620  0.86620  0.57180  Biso   1.000  O
  O25      1.0000 0.86590  0.69780  0.86590  Biso   1.000  O
  O26      1.0000 0.86620  0.57180  0.86620  Biso   1.000  O
  Zn9      1.0000 0.59627  0.07844  0.72384  Biso   1.000  Zn
  Zn10     1.0000 0.59742  0.25034  0.72384  Biso   1.000  Zn
  Zn11     1.0000 0.42268  0.25034  0.72384  Biso   1.000  Zn
  Zn12     1.0000 0.59641  0.24991  0.55266  Biso   1.000  Zn
  Zn13     1.0000 0.01604  0.66671  0.14409  Biso   1.000  Zn
  Zn14     1.0000 0.01720  0.83860  0.14409  Biso   1.000  Zn
  Zn15     1.0000 0.19078  0.66671  0.14409  Biso   1.000  Zn
  Zn16     1.0000 0.01705  0.66714  0.31527  Biso   1.000  Zn
  H25      1.0000 0.46409  0.89632  0.87930  Biso   1.000  H
  H26      1.0000 0.75641  0.40612  0.59466  Biso   1.000  H
  H27      1.0000 0.23719  0.12101  0.87930  Biso   1.000  H
  H28      1.0000 0.75508  0.40556  0.37091  Biso   1.000  H
  H29      1.0000 0.23743  0.40612  0.59466  Biso   1.000  H
  H30      1.0000 0.75617  0.12101  0.87930  Biso   1.000  H
  H31      1.0000 0.46452  0.40556  0.37091  Biso   1.000  H
  H32      1.0000 0.75466  0.89632  0.87930  Biso   1.000  H
  H33      1.0000 0.75316  0.11974  0.37091  Biso   1.000  H
  H34      1.0000 0.46753  0.40684  0.87930  Biso   1.000  H
  H35      1.0000 0.75297  0.89561  0.59466  Biso   1.000  H
  H36      1.0000 0.23912  0.40684  0.87930  Biso   1.000  H
  H37      1.0000 0.14593  0.51021  0.98862  Biso   1.000  H
  H38      1.0000 0.86049  0.02144  0.27326  Biso   1.000  H
  H39      1.0000 0.37434  0.51021  0.98862  Biso   1.000  H
  H40      1.0000 0.86030  0.79731  0.49702  Biso   1.000  H
  H41      1.0000 0.37603  0.51093  0.27326  Biso   1.000  H
  H42      1.0000 0.85881  0.02072  0.98862  Biso   1.000  H
  H43      1.0000 0.14894  0.51149  0.49702  Biso   1.000  H
  H44      1.0000 0.85729  0.79604  0.98862  Biso   1.000  H
  H45      1.0000 0.85838  0.51149  0.49702  Biso   1.000  H
  H46      1.0000 0.14937  0.02072  0.98862  Biso   1.000  H
  H47      1.0000 0.85706  0.51093  0.27326  Biso   1.000  H
  H48      1.0000 0.37627  0.79604  0.98862  Biso   1.000  H
  C49      1.0000 0.39337  0.92179  0.90144  Biso   1.000  C
  C50      1.0000 0.77874  0.42818  0.52509  Biso   1.000  C
  C51      1.0000 0.26268  0.05120  0.90144  Biso   1.000  C
  C52      1.0000 0.77798  0.42785  0.39621  Biso   1.000  C
  C53      1.0000 0.26300  0.42818  0.52509  Biso   1.000  C
  C54      1.0000 0.77843  0.05120  0.90144  Biso   1.000  C
  C55      1.0000 0.39380  0.42785  0.39621  Biso   1.000  C
  C56      1.0000 0.77756  0.92179  0.90144  Biso   1.000  C
  C57      1.0000 0.77544  0.04993  0.39621  Biso   1.000  C
  C58      1.0000 0.39678  0.42912  0.90144  Biso   1.000  C
  C59      1.0000 0.77533  0.92084  0.52509  Biso   1.000  C
  C60      1.0000 0.26523  0.42912  0.90144  Biso   1.000  C
  C61      1.0000 0.21668  0.48793  0.96649  Biso   1.000  C
  C62      1.0000 0.83813  0.99621  0.34284  Biso   1.000  C
  C63      1.0000 0.34824  0.48793  0.96649  Biso   1.000  C
  C64      1.0000 0.83802  0.86712  0.47172  Biso   1.000  C
  C65      1.0000 0.35046  0.48887  0.34284  Biso   1.000  C
  C66      1.0000 0.83591  0.99526  0.96649  Biso   1.000  C
  C67      1.0000 0.21967  0.48919  0.47172  Biso   1.000  C
  C68      1.0000 0.83503  0.86585  0.96649  Biso   1.000  C
  C69      1.0000 0.83548  0.48919  0.47172  Biso   1.000  C
  C70      1.0000 0.22009  0.99526  0.96649  Biso   1.000  C
  C71      1.0000 0.83472  0.48887  0.34284  Biso   1.000  C
  C72      1.0000 0.35078  0.86585  0.96649  Biso   1.000  C
  C73      1.0000 0.41254  0.06935  0.81872  Biso   1.000  C
  C74      1.0000 0.35549  0.01342  0.87456  Biso   1.000  C
  C75      1.0000 0.69385  0.34516  0.54337  Biso   1.000  C
  C76      1.0000 0.75090  0.40109  0.48753  Biso   1.000  C
  C77      1.0000 0.41277  0.34516  0.54337  Biso   1.000  C
  C78      1.0000 0.35582  0.40109  0.48753  Biso   1.000  C
  C79      1.0000 0.69362  0.06935  0.81872  Biso   1.000  C
  C80      1.0000 0.75057  0.01342  0.87456  Biso   1.000  C
  C81      1.0000 0.69199  0.06866  0.54337  Biso   1.000  C
  C82      1.0000 0.74828  0.01245  0.48753  Biso   1.000  C
  C83      1.0000 0.41440  0.34585  0.81872  Biso   1.000  C
  C84      1.0000 0.35811  0.40206  0.87456  Biso   1.000  C
  C85      1.0000 0.19906  0.57120  0.04921  Biso   1.000  C
  C86      1.0000 0.25536  0.51499  0.99337  Biso   1.000  C
  C87      1.0000 0.92147  0.84839  0.32456  Biso   1.000  C
  C88      1.0000 0.86518  0.90460  0.38040  Biso   1.000  C
  C89      1.0000 0.20069  0.57189  0.32456  Biso   1.000  C
  C90      1.0000 0.25765  0.51596  0.38040  Biso   1.000  C
  C91      1.0000 0.91984  0.84770  0.04921  Biso   1.000  C
  C92      1.0000 0.86289  0.90363  0.99337  Biso   1.000  C
  C93      1.0000 0.91961  0.57189  0.32456  Biso   1.000  C
  C94      1.0000 0.86256  0.51596  0.38040  Biso   1.000  C
  C95      1.0000 0.20092  0.84770  0.04921  Biso   1.000  C
  C96      1.0000 0.25797  0.90363  0.99337  Biso   1.000  C
  O27      1.0000 0.55319  0.20726  0.68104  Biso   1.000  O
  O28      1.0000 0.06027  0.70979  0.18688  Biso   1.000  O
  O29      1.0000 0.49750  0.03218  0.79539  Biso   1.000  O
  O30      1.0000 0.67038  0.32194  0.62698  Biso   1.000  O
  O31      1.0000 0.37523  0.15326  0.79539  Biso   1.000  O
  O32      1.0000 0.66966  0.32164  0.50641  Biso   1.000  O
  O33      1.0000 0.37538  0.32194  0.62698  Biso   1.000  O
  O34      1.0000 0.67023  0.15326  0.79539  Biso   1.000  O
  O35      1.0000 0.49775  0.32164  0.50641  Biso   1.000  O
  O36      1.0000 0.66942  0.03218  0.79539  Biso   1.000  O
  O37      1.0000 0.66852  0.15253  0.50641  Biso   1.000  O
  O38      1.0000 0.49946  0.32237  0.79539  Biso   1.000  O
  O39      1.0000 0.66842  0.03175  0.62698  Biso   1.000  O
  O40      1.0000 0.37637  0.32237  0.79539  Biso   1.000  O
  O41      1.0000 0.11400  0.59468  0.07253  Biso   1.000  O
  O42      1.0000 0.94504  0.88529  0.24094  Biso   1.000  O
  O43      1.0000 0.23709  0.59468  0.07253  Biso   1.000  O
  O44      1.0000 0.94494  0.76452  0.36152  Biso   1.000  O
  O45      1.0000 0.23809  0.59510  0.24094  Biso   1.000  O
  O46      1.0000 0.94404  0.88487  0.07253  Biso   1.000  O
  O47      1.0000 0.11571  0.59541  0.36152  Biso   1.000  O
  O48      1.0000 0.94323  0.76379  0.07253  Biso   1.000  O
  O49      1.0000 0.94380  0.59541  0.36152  Biso   1.000  O
  O50      1.0000 0.11596  0.88487  0.07253  Biso   1.000  O
  O51      1.0000 0.94309  0.59510  0.24094  Biso   1.000  O
  O52      1.0000 0.23823  0.76379  0.07253  Biso   1.000  O
