data_image0
_cell_length_a       18.3149
_cell_length_b       18.3149
_cell_length_c       18.3149
_cell_angle_alpha    60.3295
_cell_angle_beta     60.3295
_cell_angle_gamma    60.3295

_symmetry_space_group_name_H-M    "P 1"
_symmetry_int_tables_number       1

loop_
  _symmetry_equiv_pos_as_xyz
  'x, y, z'

loop_
  _atom_site_label
  _atom_site_occupancy
  _atom_site_fract_x
  _atom_site_fract_y
  _atom_site_fract_z
  _atom_site_thermal_displace_type
  _atom_site_B_iso_or_equiv
  _atom_site_type_symbol
  Zn1      1.0000 0.20609  0.20609  0.20609  Biso   1.000  Zn
  Zn2      1.0000 0.79391  0.79391  0.79391  Biso   1.000  Zn
  Zn3      1.0000 0.20677  0.37952  0.20677  Biso   1.000  Zn
  Zn4      1.0000 0.20677  0.20677  0.37952  Biso   1.000  Zn
  Zn5      1.0000 0.37952  0.20677  0.20677  Biso   1.000  Zn
  Zn6      1.0000 0.62048  0.79323  0.79323  Biso   1.000  Zn
  Zn7      1.0000 0.79323  0.79323  0.62048  Biso   1.000  Zn
  Zn8      1.0000 0.79323  0.62048  0.79323  Biso   1.000  Zn
  H1       1.0000 0.04260  0.34350  0.56530  Biso   1.000  H
  H2       1.0000 0.56530  0.04260  0.34350  Biso   1.000  H
  H3       1.0000 0.34350  0.56530  0.04260  Biso   1.000  H
  H4       1.0000 0.65650  0.95740  0.43470  Biso   1.000  H
  H5       1.0000 0.95740  0.43470  0.65650  Biso   1.000  H
  H6       1.0000 0.43470  0.65650  0.95740  Biso   1.000  H
  H7       1.0000 0.95740  0.65650  0.43470  Biso   1.000  H
  H8       1.0000 0.43470  0.95740  0.65650  Biso   1.000  H
  H9       1.0000 0.65650  0.43470  0.95740  Biso   1.000  H
  H10      1.0000 0.34350  0.04260  0.56530  Biso   1.000  H
  H11      1.0000 0.04260  0.56530  0.34350  Biso   1.000  H
  H12      1.0000 0.56530  0.34350  0.04260  Biso   1.000  H
  H13      1.0000 0.04880  0.55860  0.04880  Biso   1.000  H
  H14      1.0000 0.04170  0.34450  0.04170  Biso   1.000  H
  H15      1.0000 0.04880  0.04880  0.55860  Biso   1.000  H
  H16      1.0000 0.04170  0.04170  0.34450  Biso   1.000  H
  H17      1.0000 0.55860  0.04880  0.04880  Biso   1.000  H
  H18      1.0000 0.34450  0.04170  0.04170  Biso   1.000  H
  H19      1.0000 0.44140  0.95120  0.95120  Biso   1.000  H
  H20      1.0000 0.65550  0.95830  0.95830  Biso   1.000  H
  H21      1.0000 0.95120  0.95120  0.44140  Biso   1.000  H
  H22      1.0000 0.95830  0.95830  0.65550  Biso   1.000  H
  H23      1.0000 0.95120  0.44140  0.95120  Biso   1.000  H
  H24      1.0000 0.95830  0.65550  0.95830  Biso   1.000  H
  C1       1.0000 0.02770  0.40510  0.53870  Biso   1.000  C
  C2       1.0000 0.53870  0.02770  0.40510  Biso   1.000  C
  C3       1.0000 0.40510  0.53870  0.02770  Biso   1.000  C
  C4       1.0000 0.59490  0.97230  0.46130  Biso   1.000  C
  C5       1.0000 0.97230  0.46130  0.59490  Biso   1.000  C
  C6       1.0000 0.46130  0.59490  0.97230  Biso   1.000  C
  C7       1.0000 0.97230  0.59490  0.46130  Biso   1.000  C
  C8       1.0000 0.46130  0.97230  0.59490  Biso   1.000  C
  C9       1.0000 0.59490  0.46130  0.97230  Biso   1.000  C
  C10      1.0000 0.40510  0.02770  0.53870  Biso   1.000  C
  C11      1.0000 0.02770  0.53870  0.40510  Biso   1.000  C
  C12      1.0000 0.53870  0.40510  0.02770  Biso   1.000  C
  C13      1.0000 0.11130  0.39010  0.11130  Biso   1.000  C
  C14      1.0000 0.05390  0.44400  0.05390  Biso   1.000  C
  C15      1.0000 0.02940  0.53530  0.02940  Biso   1.000  C
  C16      1.0000 0.02520  0.40600  0.02520  Biso   1.000  C
  C17      1.0000 0.11130  0.11130  0.39010  Biso   1.000  C
  C18      1.0000 0.05390  0.05390  0.44400  Biso   1.000  C
  C19      1.0000 0.02940  0.02940  0.53530  Biso   1.000  C
  C20      1.0000 0.02520  0.02520  0.40600  Biso   1.000  C
  C21      1.0000 0.39010  0.11130  0.11130  Biso   1.000  C
  C22      1.0000 0.44400  0.05390  0.05390  Biso   1.000  C
  C23      1.0000 0.53530  0.02940  0.02940  Biso   1.000  C
  C24      1.0000 0.40600  0.02520  0.02520  Biso   1.000  C
  C25      1.0000 0.60990  0.88870  0.88870  Biso   1.000  C
  C26      1.0000 0.55600  0.94610  0.94610  Biso   1.000  C
  C27      1.0000 0.46470  0.97060  0.97060  Biso   1.000  C
  C28      1.0000 0.59400  0.97480  0.97480  Biso   1.000  C
  C29      1.0000 0.88870  0.88870  0.60990  Biso   1.000  C
  C30      1.0000 0.94610  0.94610  0.55600  Biso   1.000  C
  C31      1.0000 0.97060  0.97060  0.46470  Biso   1.000  C
  C32      1.0000 0.97480  0.97480  0.59400  Biso   1.000  C
  C33      1.0000 0.88870  0.60990  0.88870  Biso   1.000  C
  C34      1.0000 0.94610  0.55600  0.94610  Biso   1.000  C
  C35      1.0000 0.97060  0.46470  0.97060  Biso   1.000  C
  C36      1.0000 0.97480  0.59400  0.97480  Biso   1.000  C
  C37      1.0000 0.11170  0.38940  0.38940  Biso   1.000  C
  C38      1.0000 0.05990  0.44245  0.44245  Biso   1.000  C
  C39      1.0000 0.38940  0.11170  0.38940  Biso   1.000  C
  C40      1.0000 0.44245  0.05990  0.44245  Biso   1.000  C
  C41      1.0000 0.38940  0.38940  0.11170  Biso   1.000  C
  C42      1.0000 0.44245  0.44245  0.05990  Biso   1.000  C
  C43      1.0000 0.61060  0.88830  0.61060  Biso   1.000  C
  C44      1.0000 0.55755  0.94010  0.55755  Biso   1.000  C
  C45      1.0000 0.88830  0.61060  0.61060  Biso   1.000  C
  C46      1.0000 0.94010  0.55755  0.55755  Biso   1.000  C
  C47      1.0000 0.61060  0.61060  0.88830  Biso   1.000  C
  C48      1.0000 0.55755  0.55755  0.94010  Biso   1.000  C
  O1       1.0000 0.13529  0.42759  0.30119  Biso   1.000  O
  O2       1.0000 0.30119  0.13529  0.42759  Biso   1.000  O
  O3       1.0000 0.42759  0.30119  0.13529  Biso   1.000  O
  O4       1.0000 0.57241  0.86471  0.69881  Biso   1.000  O
  O5       1.0000 0.86471  0.69881  0.57241  Biso   1.000  O
  O6       1.0000 0.69881  0.57241  0.86471  Biso   1.000  O
  O7       1.0000 0.86471  0.57241  0.69881  Biso   1.000  O
  O8       1.0000 0.69881  0.86471  0.57241  Biso   1.000  O
  O9       1.0000 0.57241  0.69881  0.86471  Biso   1.000  O
  O10      1.0000 0.42759  0.13529  0.30119  Biso   1.000  O
  O11      1.0000 0.13529  0.30119  0.42759  Biso   1.000  O
  O12      1.0000 0.30119  0.42759  0.13529  Biso   1.000  O
  O13      1.0000 0.25153  0.25153  0.25153  Biso   1.000  O
  O14      1.0000 0.74847  0.74847  0.74847  Biso   1.000  O
  O15      1.0000 0.13410  0.30220  0.13410  Biso   1.000  O
  O16      1.0000 0.13380  0.42820  0.13380  Biso   1.000  O
  O17      1.0000 0.13410  0.13410  0.30220  Biso   1.000  O
  O18      1.0000 0.13380  0.13380  0.42820  Biso   1.000  O
  O19      1.0000 0.30220  0.13410  0.13410  Biso   1.000  O
  O20      1.0000 0.42820  0.13380  0.13380  Biso   1.000  O
  O21      1.0000 0.69780  0.86590  0.86590  Biso   1.000  O
  O22      1.0000 0.57180  0.86620  0.86620  Biso   1.000  O
  O23      1.0000 0.86590  0.86590  0.69780  Biso   1.000  O
  O24      1.0000 0.86620  0.86620  0.57180  Biso   1.000  O
  O25      1.0000 0.86590  0.69780  0.86590  Biso   1.000  O
  O26      1.0000 0.86620  0.57180  0.86620  Biso   1.000  O
  Zn9      1.0000 0.01183  0.82548  0.13113  Biso   1.000  Zn
  Zn10     1.0000 0.84063  0.99500  0.13113  Biso   1.000  Zn
  Zn11     1.0000 0.42583  0.42255  0.73088  Biso   1.000  Zn
  Zn12     1.0000 0.01297  0.99500  0.13113  Biso   1.000  Zn
  Zn13     1.0000 0.42598  0.59165  0.56206  Biso   1.000  Zn
  Zn14     1.0000 0.42484  0.42213  0.56206  Biso   1.000  Zn
  Zn15     1.0000 0.59717  0.42213  0.56206  Biso   1.000  Zn
  Zn16     1.0000 0.01197  0.99458  0.96231  Biso   1.000  Zn
  C49      1.0000 0.63023  0.74333  0.38626  Biso   1.000  C
  C50      1.0000 0.19130  0.67380  0.30693  Biso   1.000  C
  C51      1.0000 0.74958  0.24515  0.38626  Biso   1.000  C
  C52      1.0000 0.16098  0.76116  0.89884  Biso   1.000  C
  C53      1.0000 0.62982  0.24640  0.88236  Biso   1.000  C
  C54      1.0000 0.77515  0.76212  0.27902  Biso   1.000  C
  C55      1.0000 0.60442  0.59792  0.47117  Biso   1.000  C
  C56      1.0000 0.68568  0.79450  0.30693  Biso   1.000  C
  C57      1.0000 0.80757  0.67380  0.30693  Biso   1.000  C
  C58      1.0000 0.16355  0.14292  0.89884  Biso   1.000  C
  C59      1.0000 0.16323  0.76212  0.27902  Biso   1.000  C
  C60      1.0000 0.24873  0.74427  0.76217  Biso   1.000  C
  C61      1.0000 0.24569  0.62263  0.38626  Biso   1.000  C
  C62      1.0000 0.10510  0.81921  0.22202  Biso   1.000  C
  C63      1.0000 0.83360  0.08583  0.95584  Biso   1.000  C
  C64      1.0000 0.60263  0.33064  0.47117  Biso   1.000  C
  C65      1.0000 0.83518  0.08649  0.22202  Biso   1.000  C
  C66      1.0000 0.83338  0.81921  0.22202  Biso   1.000  C
  C67      1.0000 0.75212  0.62263  0.38626  Biso   1.000  C
  C68      1.0000 0.81092  0.17198  0.30693  Biso   1.000  C
  C69      1.0000 0.33271  0.59792  0.47117  Biso   1.000  C
  C70      1.0000 0.68822  0.17198  0.30693  Biso   1.000  C
  C71      1.0000 0.24863  0.62387  0.88236  Biso   1.000  C
  C72      1.0000 0.10532  0.08583  0.95584  Biso   1.000  C
  C73      1.0000 0.68600  0.17103  0.93102  Biso   1.000  C
  C74      1.0000 0.60420  0.33130  0.73735  Biso   1.000  C
  C75      1.0000 0.27457  0.65501  0.41418  Biso   1.000  C
  C76      1.0000 0.62688  0.24515  0.38626  Biso   1.000  C
  C77      1.0000 0.19172  0.17073  0.81083  Biso   1.000  C
  C78      1.0000 0.10352  0.81854  0.95584  Biso   1.000  C
  C79      1.0000 0.75180  0.24610  0.76217  Biso   1.000  C
  C80      1.0000 0.19243  0.17103  0.93102  Biso   1.000  C
  C81      1.0000 0.66234  0.27421  0.79435  Biso   1.000  C
  C82      1.0000 0.24650  0.74333  0.38626  Biso   1.000  C
  C83      1.0000 0.24538  0.24610  0.76217  Biso   1.000  C
  C84      1.0000 0.33428  0.59859  0.73735  Biso   1.000  C
  C85      1.0000 0.24609  0.24640  0.88236  Biso   1.000  C
  C86      1.0000 0.18907  0.67286  0.93102  Biso   1.000  C
  C87      1.0000 0.18918  0.79326  0.81083  Biso   1.000  C
  C88      1.0000 0.77771  0.14387  0.27902  Biso   1.000  C
  C89      1.0000 0.19211  0.79450  0.30693  Biso   1.000  C
  C90      1.0000 0.66009  0.27326  0.41418  Biso   1.000  C
  C91      1.0000 0.27682  0.65597  0.79435  Biso   1.000  C
  C92      1.0000 0.33248  0.33130  0.73735  Biso   1.000  C
  C93      1.0000 0.27425  0.27421  0.79435  Biso   1.000  C
  C94      1.0000 0.77547  0.14292  0.89884  Biso   1.000  C
  C95      1.0000 0.80799  0.17073  0.81083  Biso   1.000  C
  C96      1.0000 0.66266  0.65501  0.41418  Biso   1.000  C
  O27      1.0000 0.35379  0.63932  0.49143  Biso   1.000  O
  O28      1.0000 0.35476  0.63974  0.65566  Biso   1.000  O
  O29      1.0000 0.08402  0.77781  0.20176  Biso   1.000  O
  O30      1.0000 0.52119  0.35175  0.77853  Biso   1.000  O
  O31      1.0000 0.35354  0.35175  0.77853  Biso   1.000  O
  O32      1.0000 0.08304  0.77739  0.03753  Biso   1.000  O
  O33      1.0000 0.91662  0.06538  0.91466  Biso   1.000  O
  O34      1.0000 0.08426  0.06538  0.91466  Biso   1.000  O
  O35      1.0000 0.35296  0.51594  0.49143  Biso   1.000  O
  O36      1.0000 0.64603  0.51594  0.49143  Biso   1.000  O
  O37      1.0000 0.08485  0.90119  0.20176  Biso   1.000  O
  O38      1.0000 0.35282  0.35144  0.65566  Biso   1.000  O
  O39      1.0000 0.91831  0.06610  0.20176  Biso   1.000  O
  O40      1.0000 0.79178  0.90119  0.20176  Biso   1.000  O
  O41      1.0000 0.79288  0.06610  0.20176  Biso   1.000  O
  O42      1.0000 0.35465  0.51666  0.77853  Biso   1.000  O
  O43      1.0000 0.46845  0.46461  0.60426  Biso   1.000  O
  O44      1.0000 0.52143  0.63932  0.49143  Biso   1.000  O
  O45      1.0000 0.91637  0.77781  0.20176  Biso   1.000  O
  O46      1.0000 0.79191  0.06569  0.03753  Biso   1.000  O
  O47      1.0000 0.64492  0.35103  0.49143  Biso   1.000  O
  O48      1.0000 0.08498  0.06569  0.03753  Biso   1.000  O
  O49      1.0000 0.96935  0.95252  0.08893  Biso   1.000  O
  O50      1.0000 0.51949  0.35103  0.49143  Biso   1.000  O
  O51      1.0000 0.08315  0.90047  0.91466  Biso   1.000  O
  O52      1.0000 0.64589  0.35144  0.65566  Biso   1.000  O
  H25      1.0000 0.55459  0.77479  0.40784  Biso   1.000  H
  H26      1.0000 0.17116  0.63847  0.28755  Biso   1.000  H
  H27      1.0000 0.78179  0.26688  0.40784  Biso   1.000  H
  H28      1.0000 0.55416  0.26815  0.91364  Biso   1.000  H
  H29      1.0000 0.65413  0.86919  0.28535  Biso   1.000  H
  H30      1.0000 0.88267  0.63847  0.28755  Biso   1.000  H
  H31      1.0000 0.27052  0.77549  0.68773  Biso   1.000  H
  H32      1.0000 0.26734  0.54794  0.40784  Biso   1.000  H
  H33      1.0000 0.78368  0.54794  0.40784  Biso   1.000  H
  H34      1.0000 0.88663  0.15025  0.28535  Biso   1.000  H
  H35      1.0000 0.65602  0.15025  0.28535  Biso   1.000  H
  H36      1.0000 0.27033  0.54921  0.91364  Biso   1.000  H
  H37      1.0000 0.65436  0.14955  0.00546  Biso   1.000  H
  H38      1.0000 0.55117  0.26688  0.40784  Biso   1.000  H
  H39      1.0000 0.17159  0.15117  0.77569  Biso   1.000  H
  H40      1.0000 0.78737  0.26538  0.68825  Biso   1.000  H
  H41      1.0000 0.17294  0.15175  0.00494  Biso   1.000  H
  H42      1.0000 0.26665  0.77866  0.40565  Biso   1.000  H
  H43      1.0000 0.26711  0.26758  0.68773  Biso   1.000  H
  H44      1.0000 0.26844  0.26815  0.91364  Biso   1.000  H
  H45      1.0000 0.16948  0.63776  0.00494  Biso   1.000  H
  H46      1.0000 0.16968  0.86739  0.77569  Biso   1.000  H
  H47      1.0000 0.17271  0.86867  0.28755  Biso   1.000  H
  H48      1.0000 0.88364  0.14898  0.77955  Biso   1.000  H
