data_image0
_cell_length_a       18.3063
_cell_length_b       18.3063
_cell_length_c       18.3063
_cell_angle_alpha    60
_cell_angle_beta     60
_cell_angle_gamma    60

_symmetry_space_group_name_H-M    "P 1"
_symmetry_int_tables_number       1

loop_
  _symmetry_equiv_pos_as_xyz
  'x, y, z'

loop_
  _atom_site_label
  _atom_site_occupancy
  _atom_site_fract_x
  _atom_site_fract_y
  _atom_site_fract_z
  _atom_site_thermal_displace_type
  _atom_site_B_iso_or_equiv
  _atom_site_type_symbol
  Zn1      1.0000 0.20664  0.38006  0.20665  Biso   1.000  Zn
  Zn2      1.0000 0.38005  0.20665  0.20665  Biso   1.000  Zn
  Zn3      1.0000 0.20664  0.20665  0.20665  Biso   1.000  Zn
  Zn4      1.0000 0.20664  0.20665  0.38006  Biso   1.000  Zn
  Zn5      1.0000 0.61995  0.79335  0.79335  Biso   1.000  Zn
  Zn6      1.0000 0.79336  0.61994  0.79335  Biso   1.000  Zn
  Zn7      1.0000 0.79336  0.79335  0.79335  Biso   1.000  Zn
  Zn8      1.0000 0.79336  0.79335  0.61994  Biso   1.000  Zn
  H1       1.0000 0.04520  0.56560  0.04520  Biso   1.000  H
  H2       1.0000 0.56560  0.04520  0.34400  Biso   1.000  H
  H3       1.0000 0.04520  0.34400  0.04520  Biso   1.000  H
  H4       1.0000 0.34400  0.04520  0.56560  Biso   1.000  H
  H5       1.0000 0.04520  0.04520  0.34400  Biso   1.000  H
  H6       1.0000 0.56560  0.34400  0.04520  Biso   1.000  H
  H7       1.0000 0.04520  0.04520  0.56560  Biso   1.000  H
  H8       1.0000 0.34400  0.56560  0.04520  Biso   1.000  H
  H9       1.0000 0.04520  0.34400  0.56560  Biso   1.000  H
  H10      1.0000 0.56560  0.04520  0.04520  Biso   1.000  H
  H11      1.0000 0.04520  0.56560  0.34400  Biso   1.000  H
  H12      1.0000 0.34400  0.04520  0.04520  Biso   1.000  H
  H13      1.0000 0.43440  0.95480  0.95480  Biso   1.000  H
  H14      1.0000 0.95480  0.43440  0.65600  Biso   1.000  H
  H15      1.0000 0.65600  0.95480  0.95480  Biso   1.000  H
  H16      1.0000 0.95480  0.65600  0.43440  Biso   1.000  H
  H17      1.0000 0.95480  0.95480  0.65600  Biso   1.000  H
  H18      1.0000 0.65600  0.43440  0.95480  Biso   1.000  H
  H19      1.0000 0.95480  0.95480  0.43440  Biso   1.000  H
  H20      1.0000 0.43440  0.65600  0.95480  Biso   1.000  H
  H21      1.0000 0.65600  0.95480  0.43440  Biso   1.000  H
  H22      1.0000 0.95480  0.43440  0.95480  Biso   1.000  H
  H23      1.0000 0.43440  0.95480  0.65600  Biso   1.000  H
  H24      1.0000 0.95480  0.65600  0.95480  Biso   1.000  H
  C1       1.0000 0.02683  0.53905  0.02683  Biso   1.000  C
  C2       1.0000 0.53905  0.02683  0.40729  Biso   1.000  C
  C3       1.0000 0.02683  0.40729  0.02683  Biso   1.000  C
  C4       1.0000 0.40729  0.02683  0.53905  Biso   1.000  C
  C5       1.0000 0.02683  0.02683  0.40729  Biso   1.000  C
  C6       1.0000 0.53905  0.40729  0.02683  Biso   1.000  C
  C7       1.0000 0.02683  0.02683  0.53905  Biso   1.000  C
  C8       1.0000 0.40729  0.53905  0.02683  Biso   1.000  C
  C9       1.0000 0.02683  0.40729  0.53905  Biso   1.000  C
  C10      1.0000 0.53905  0.02683  0.02683  Biso   1.000  C
  C11      1.0000 0.02683  0.53905  0.40729  Biso   1.000  C
  C12      1.0000 0.40729  0.02683  0.02683  Biso   1.000  C
  C13      1.0000 0.46095  0.97317  0.97317  Biso   1.000  C
  C14      1.0000 0.97317  0.46095  0.59271  Biso   1.000  C
  C15      1.0000 0.59271  0.97317  0.97317  Biso   1.000  C
  C16      1.0000 0.97317  0.59271  0.46095  Biso   1.000  C
  C17      1.0000 0.97317  0.97317  0.59271  Biso   1.000  C
  C18      1.0000 0.59271  0.46095  0.97317  Biso   1.000  C
  C19      1.0000 0.97317  0.97317  0.46095  Biso   1.000  C
  C20      1.0000 0.46095  0.59271  0.97317  Biso   1.000  C
  C21      1.0000 0.59271  0.97317  0.46095  Biso   1.000  C
  C22      1.0000 0.97317  0.46095  0.97317  Biso   1.000  C
  C23      1.0000 0.46095  0.97317  0.59271  Biso   1.000  C
  C24      1.0000 0.97317  0.59271  0.97317  Biso   1.000  C
  C25      1.0000 0.11144  0.38856  0.11144  Biso   1.000  C
  C26      1.0000 0.05381  0.44619  0.05381  Biso   1.000  C
  C27      1.0000 0.38856  0.11144  0.38856  Biso   1.000  C
  C28      1.0000 0.44619  0.05381  0.44619  Biso   1.000  C
  C29      1.0000 0.11144  0.11144  0.38856  Biso   1.000  C
  C30      1.0000 0.05381  0.05381  0.44619  Biso   1.000  C
  C31      1.0000 0.38856  0.38856  0.11144  Biso   1.000  C
  C32      1.0000 0.44619  0.44619  0.05381  Biso   1.000  C
  C33      1.0000 0.11144  0.38856  0.38856  Biso   1.000  C
  C34      1.0000 0.05381  0.44619  0.44619  Biso   1.000  C
  C35      1.0000 0.38856  0.11144  0.11144  Biso   1.000  C
  C36      1.0000 0.44619  0.05381  0.05381  Biso   1.000  C
  C37      1.0000 0.61144  0.88856  0.88856  Biso   1.000  C
  C38      1.0000 0.55381  0.94619  0.94619  Biso   1.000  C
  C39      1.0000 0.88856  0.61144  0.61144  Biso   1.000  C
  C40      1.0000 0.94619  0.55381  0.55381  Biso   1.000  C
  C41      1.0000 0.88856  0.88856  0.61144  Biso   1.000  C
  C42      1.0000 0.94619  0.94619  0.55381  Biso   1.000  C
  C43      1.0000 0.61144  0.61144  0.88856  Biso   1.000  C
  C44      1.0000 0.55381  0.55381  0.94619  Biso   1.000  C
  C45      1.0000 0.61144  0.88856  0.61144  Biso   1.000  C
  C46      1.0000 0.55381  0.94619  0.55381  Biso   1.000  C
  C47      1.0000 0.88856  0.61144  0.88856  Biso   1.000  C
  C48      1.0000 0.94619  0.55381  0.94619  Biso   1.000  C
  O1       1.0000 0.25000  0.25000  0.25000  Biso   1.000  O
  O2       1.0000 0.75000  0.75000  0.75000  Biso   1.000  O
  O3       1.0000 0.13368  0.42768  0.13368  Biso   1.000  O
  O4       1.0000 0.42768  0.13368  0.30496  Biso   1.000  O
  O5       1.0000 0.13368  0.30496  0.13368  Biso   1.000  O
  O6       1.0000 0.30496  0.13368  0.42768  Biso   1.000  O
  O7       1.0000 0.13368  0.13368  0.30496  Biso   1.000  O
  O8       1.0000 0.42768  0.30496  0.13368  Biso   1.000  O
  O9       1.0000 0.13368  0.13368  0.42768  Biso   1.000  O
  O10      1.0000 0.30496  0.42768  0.13368  Biso   1.000  O
  O11      1.0000 0.13368  0.30496  0.42768  Biso   1.000  O
  O12      1.0000 0.42768  0.13368  0.13368  Biso   1.000  O
  O13      1.0000 0.13368  0.42768  0.30496  Biso   1.000  O
  O14      1.0000 0.30496  0.13368  0.13368  Biso   1.000  O
  O15      1.0000 0.57232  0.86632  0.86632  Biso   1.000  O
  O16      1.0000 0.86632  0.57232  0.69504  Biso   1.000  O
  O17      1.0000 0.69504  0.86632  0.86632  Biso   1.000  O
  O18      1.0000 0.86632  0.69504  0.57232  Biso   1.000  O
  O19      1.0000 0.86632  0.86632  0.69504  Biso   1.000  O
  O20      1.0000 0.69504  0.57232  0.86632  Biso   1.000  O
  O21      1.0000 0.86632  0.86632  0.57232  Biso   1.000  O
  O22      1.0000 0.57232  0.69504  0.86632  Biso   1.000  O
  O23      1.0000 0.69504  0.86632  0.57232  Biso   1.000  O
  O24      1.0000 0.86632  0.57232  0.86632  Biso   1.000  O
  O25      1.0000 0.57232  0.86632  0.69504  Biso   1.000  O
  O26      1.0000 0.86632  0.69504  0.86632  Biso   1.000  O
  Zn9      1.0000 0.84289  0.01827  0.13231  Biso   1.000  Zn
  Zn10     1.0000 0.41723  0.59261  0.53556  Biso   1.000  Zn
  Zn11     1.0000 0.58852  0.42133  0.53556  Biso   1.000  Zn
  Zn12     1.0000 0.01418  0.84698  0.13231  Biso   1.000  Zn
  Zn13     1.0000 0.01425  0.01834  0.96082  Biso   1.000  Zn
  Zn14     1.0000 0.01400  0.01809  0.13244  Biso   1.000  Zn
  Zn15     1.0000 0.41716  0.42125  0.70705  Biso   1.000  Zn
  Zn16     1.0000 0.41741  0.42150  0.53543  Biso   1.000  Zn
  H25      1.0000 0.87820  0.17285  0.75791  Biso   1.000  H
  H26      1.0000 0.63885  0.17132  0.99777  Biso   1.000  H
  H27      1.0000 0.63688  0.88369  0.28456  Biso   1.000  H
  H28      1.0000 0.26265  0.55730  0.90996  Biso   1.000  H
  H29      1.0000 0.26418  0.79665  0.67010  Biso   1.000  H
  H30      1.0000 0.55182  0.79862  0.38331  Biso   1.000  H
  H31      1.0000 0.55321  0.26675  0.90996  Biso   1.000  H
  H32      1.0000 0.79256  0.26827  0.67010  Biso   1.000  H
  H33      1.0000 0.79453  0.55591  0.38331  Biso   1.000  H
  H34      1.0000 0.16876  0.88229  0.75791  Biso   1.000  H
  H35      1.0000 0.16723  0.64294  0.99777  Biso   1.000  H
  H36      1.0000 0.87959  0.64097  0.28456  Biso   1.000  H
  C49      1.0000 0.84579  0.10524  0.95641  Biso   1.000  C
  C50      1.0000 0.77745  0.16889  0.89793  Biso   1.000  C
  C51      1.0000 0.81563  0.19396  0.78392  Biso   1.000  C
  C52      1.0000 0.66554  0.19254  0.93538  Biso   1.000  C
  C53      1.0000 0.84225  0.10464  0.21855  Biso   1.000  C
  C54      1.0000 0.66259  0.82141  0.30793  Biso   1.000  C
  C55      1.0000 0.33026  0.58972  0.71146  Biso   1.000  C
  C56      1.0000 0.26662  0.65805  0.76994  Biso   1.000  C
  C57      1.0000 0.24154  0.61987  0.88395  Biso   1.000  C
  C58      1.0000 0.24296  0.76996  0.73249  Biso   1.000  C
  C59      1.0000 0.33086  0.59325  0.44932  Biso   1.000  C
  C60      1.0000 0.61409  0.77291  0.35994  Biso   1.000  C
  C61      1.0000 0.58562  0.33436  0.71146  Biso   1.000  C
  C62      1.0000 0.65396  0.27071  0.76994  Biso   1.000  C
  C63      1.0000 0.61578  0.24563  0.88395  Biso   1.000  C
  C64      1.0000 0.76587  0.24705  0.73249  Biso   1.000  C
  C65      1.0000 0.58916  0.33496  0.44932  Biso   1.000  C
  C66      1.0000 0.76882  0.61819  0.35994  Biso   1.000  C
  C67      1.0000 0.10115  0.84988  0.95641  Biso   1.000  C
  C68      1.0000 0.16479  0.78154  0.89793  Biso   1.000  C
  C69      1.0000 0.18987  0.81972  0.78392  Biso   1.000  C
  C70      1.0000 0.18845  0.66963  0.93538  Biso   1.000  C
  C71      1.0000 0.10055  0.84634  0.21855  Biso   1.000  C
  C72      1.0000 0.81732  0.66668  0.30793  Biso   1.000  C
  C73      1.0000 0.10144  0.10553  0.95650  Biso   1.000  C
  C74      1.0000 0.84118  0.84527  0.21767  Biso   1.000  C
  C75      1.0000 0.77724  0.78133  0.28553  Biso   1.000  C
  C76      1.0000 0.32997  0.33406  0.71137  Biso   1.000  C
  C77      1.0000 0.59023  0.59433  0.45020  Biso   1.000  C
  C78      1.0000 0.65417  0.65827  0.38234  Biso   1.000  C
  O27      1.0000 0.92224  0.08921  0.91319  Biso   1.000  O
  O28      1.0000 0.79475  0.08998  0.03795  Biso   1.000  O
  O29      1.0000 0.92203  0.08939  0.20252  Biso   1.000  O
  O30      1.0000 0.79337  0.08958  0.20262  Biso   1.000  O
  O31      1.0000 0.79367  0.92563  0.20418  Biso   1.000  O
  O32      1.0000 0.34629  0.51326  0.75468  Biso   1.000  O
  O33      1.0000 0.34552  0.64076  0.62992  Biso   1.000  O
  O34      1.0000 0.34611  0.51348  0.46535  Biso   1.000  O
  O35      1.0000 0.34592  0.64213  0.46525  Biso   1.000  O
  O36      1.0000 0.50987  0.64184  0.46369  Biso   1.000  O
  O37      1.0000 0.50917  0.35039  0.75468  Biso   1.000  O
  O38      1.0000 0.63666  0.34961  0.62992  Biso   1.000  O
  O39      1.0000 0.50938  0.35021  0.46535  Biso   1.000  O
  O40      1.0000 0.63804  0.35001  0.46525  Biso   1.000  O
  O41      1.0000 0.63775  0.51396  0.46369  Biso   1.000  O
  O42      1.0000 0.08512  0.92633  0.91319  Biso   1.000  O
  O43      1.0000 0.08589  0.79884  0.03795  Biso   1.000  O
  O44      1.0000 0.08530  0.92612  0.20252  Biso   1.000  O
  O45      1.0000 0.08549  0.79746  0.20262  Biso   1.000  O
  O46      1.0000 0.92154  0.79775  0.20418  Biso   1.000  O
  O47      1.0000 0.97004  0.97413  0.09066  Biso   1.000  O
  O48      1.0000 0.08502  0.08911  0.91172  Biso   1.000  O
  O49      1.0000 0.08491  0.08900  0.03971  Biso   1.000  O
  O50      1.0000 0.46137  0.46547  0.57721  Biso   1.000  O
  O51      1.0000 0.34639  0.35049  0.75615  Biso   1.000  O
  O52      1.0000 0.34650  0.35059  0.62816  Biso   1.000  O
