data_image0
_cell_length_a       18.3127
_cell_length_b       18.3127
_cell_length_c       18.3127
_cell_angle_alpha    60
_cell_angle_beta     60
_cell_angle_gamma    60

_symmetry_space_group_name_H-M    "P 1"
_symmetry_int_tables_number       1

loop_
  _symmetry_equiv_pos_as_xyz
  'x, y, z'

loop_
  _atom_site_label
  _atom_site_occupancy
  _atom_site_fract_x
  _atom_site_fract_y
  _atom_site_fract_z
  _atom_site_thermal_displace_type
  _atom_site_B_iso_or_equiv
  _atom_site_type_symbol
  C1       1.0000 0.20666  0.38001  0.20666  Biso   1.000  C
  C2       1.0000 0.38001  0.20666  0.20666  Biso   1.000  C
  C3       1.0000 0.20667  0.20666  0.20666  Biso   1.000  C
  C4       1.0000 0.20667  0.20666  0.38001  Biso   1.000  C
  C5       1.0000 0.61999  0.79334  0.79334  Biso   1.000  C
  C6       1.0000 0.79334  0.61999  0.79333  Biso   1.000  C
  C7       1.0000 0.79334  0.79333  0.79334  Biso   1.000  C
  C8       1.0000 0.79334  0.79333  0.61999  Biso   1.000  C
  C9       1.0000 0.04520  0.56580  0.04520  Biso   1.000  C
  C10      1.0000 0.56580  0.04520  0.34380  Biso   1.000  C
  C11      1.0000 0.04520  0.34380  0.04520  Biso   1.000  C
  C12      1.0000 0.34380  0.04520  0.56580  Biso   1.000  C
  C13      1.0000 0.04520  0.04520  0.34380  Biso   1.000  C
  C14      1.0000 0.56580  0.34380  0.04520  Biso   1.000  C
  C15      1.0000 0.04520  0.04520  0.56580  Biso   1.000  C
  C16      1.0000 0.34380  0.56580  0.04520  Biso   1.000  C
  C17      1.0000 0.04520  0.34380  0.56580  Biso   1.000  C
  C18      1.0000 0.56580  0.04520  0.04520  Biso   1.000  C
  C19      1.0000 0.04520  0.56580  0.34380  Biso   1.000  C
  C20      1.0000 0.34380  0.04520  0.04520  Biso   1.000  C
  C21      1.0000 0.43420  0.95480  0.95480  Biso   1.000  C
  C22      1.0000 0.95480  0.43420  0.65620  Biso   1.000  C
  C23      1.0000 0.65620  0.95480  0.95480  Biso   1.000  C
  C24      1.0000 0.95480  0.65620  0.43420  Biso   1.000  C
  C25      1.0000 0.95480  0.95480  0.65620  Biso   1.000  C
  C26      1.0000 0.65620  0.43420  0.95480  Biso   1.000  C
  C27      1.0000 0.95480  0.95480  0.43420  Biso   1.000  C
  C28      1.0000 0.43420  0.65620  0.95480  Biso   1.000  C
  C29      1.0000 0.65620  0.95480  0.43420  Biso   1.000  C
  C30      1.0000 0.95480  0.43420  0.95480  Biso   1.000  C
  C31      1.0000 0.43420  0.95480  0.65620  Biso   1.000  C
  C32      1.0000 0.95480  0.65620  0.95480  Biso   1.000  C
  C33      1.0000 0.02688  0.53930  0.02688  Biso   1.000  C
  C34      1.0000 0.53930  0.02688  0.40694  Biso   1.000  C
  C35      1.0000 0.02688  0.40694  0.02688  Biso   1.000  C
  C36      1.0000 0.40694  0.02688  0.53930  Biso   1.000  C
  C37      1.0000 0.02688  0.02688  0.40694  Biso   1.000  C
  C38      1.0000 0.53930  0.40694  0.02688  Biso   1.000  C
  C39      1.0000 0.02688  0.02688  0.53930  Biso   1.000  C
  C40      1.0000 0.40694  0.53930  0.02688  Biso   1.000  C
  C41      1.0000 0.02688  0.40694  0.53930  Biso   1.000  C
  C42      1.0000 0.53930  0.02688  0.02688  Biso   1.000  C
  C43      1.0000 0.02688  0.53930  0.40694  Biso   1.000  C
  C44      1.0000 0.40694  0.02688  0.02688  Biso   1.000  C
  C45      1.0000 0.46070  0.97312  0.97312  Biso   1.000  C
  C46      1.0000 0.97312  0.46070  0.59306  Biso   1.000  C
  C47      1.0000 0.59306  0.97312  0.97312  Biso   1.000  C
  C48      1.0000 0.97312  0.59306  0.46070  Biso   1.000  C
  C49      1.0000 0.97312  0.97312  0.59306  Biso   1.000  C
  C50      1.0000 0.59306  0.46070  0.97312  Biso   1.000  C
  C51      1.0000 0.97312  0.97312  0.46070  Biso   1.000  C
  C52      1.0000 0.46070  0.59306  0.97312  Biso   1.000  C
  C53      1.0000 0.59306  0.97312  0.46070  Biso   1.000  C
  C54      1.0000 0.97312  0.46070  0.97312  Biso   1.000  C
  C55      1.0000 0.46070  0.97312  0.59306  Biso   1.000  C
  C56      1.0000 0.97312  0.59306  0.97312  Biso   1.000  C
  C57      1.0000 0.11142  0.38858  0.11142  Biso   1.000  C
  C58      1.0000 0.05381  0.44619  0.05381  Biso   1.000  C
  C59      1.0000 0.38858  0.11142  0.38858  Biso   1.000  C
  C60      1.0000 0.44619  0.05381  0.44619  Biso   1.000  C
  C61      1.0000 0.11142  0.11142  0.38858  Biso   1.000  C
  C62      1.0000 0.05381  0.05381  0.44619  Biso   1.000  C
  C63      1.0000 0.38858  0.38858  0.11142  Biso   1.000  C
  C64      1.0000 0.44619  0.44619  0.05381  Biso   1.000  C
  C65      1.0000 0.11142  0.38858  0.38858  Biso   1.000  C
  C66      1.0000 0.05381  0.44619  0.44619  Biso   1.000  C
  C67      1.0000 0.38858  0.11142  0.11142  Biso   1.000  C
  C68      1.0000 0.44619  0.05381  0.05381  Biso   1.000  C
  C69      1.0000 0.61142  0.88858  0.88858  Biso   1.000  C
  C70      1.0000 0.55381  0.94619  0.94619  Biso   1.000  C
  C71      1.0000 0.88858  0.61142  0.61142  Biso   1.000  C
  C72      1.0000 0.94619  0.55381  0.55381  Biso   1.000  C
  C73      1.0000 0.88858  0.88858  0.61142  Biso   1.000  C
  C74      1.0000 0.94619  0.94619  0.55381  Biso   1.000  C
  C75      1.0000 0.61142  0.61142  0.88858  Biso   1.000  C
  C76      1.0000 0.55381  0.55381  0.94619  Biso   1.000  C
  C77      1.0000 0.61142  0.88858  0.61142  Biso   1.000  C
  C78      1.0000 0.55381  0.94619  0.55381  Biso   1.000  C
  C79      1.0000 0.88858  0.61142  0.88858  Biso   1.000  C
  C80      1.0000 0.94619  0.55381  0.94619  Biso   1.000  C
  C81      1.0000 0.25000  0.25000  0.25000  Biso   1.000  C
  C82      1.0000 0.75000  0.75000  0.75000  Biso   1.000  C
  C83      1.0000 0.13369  0.42773  0.13369  Biso   1.000  C
  C84      1.0000 0.42773  0.13369  0.30489  Biso   1.000  C
  C85      1.0000 0.13369  0.30489  0.13369  Biso   1.000  C
  C86      1.0000 0.30489  0.13369  0.42773  Biso   1.000  C
  C87      1.0000 0.13369  0.13369  0.30489  Biso   1.000  C
  C88      1.0000 0.42773  0.30489  0.13369  Biso   1.000  C
  C89      1.0000 0.13369  0.13369  0.42773  Biso   1.000  C
  C90      1.0000 0.30489  0.42773  0.13369  Biso   1.000  C
  C91      1.0000 0.13369  0.30489  0.42773  Biso   1.000  C
  C92      1.0000 0.42773  0.13369  0.13369  Biso   1.000  C
  C93      1.0000 0.13369  0.42773  0.30489  Biso   1.000  C
  C94      1.0000 0.30489  0.13369  0.13369  Biso   1.000  C
  C95      1.0000 0.57227  0.86631  0.86631  Biso   1.000  C
  C96      1.0000 0.86631  0.57227  0.69511  Biso   1.000  C
  C97      1.0000 0.69511  0.86631  0.86631  Biso   1.000  C
  C98      1.0000 0.86631  0.69511  0.57227  Biso   1.000  C
  C99      1.0000 0.86631  0.86631  0.69511  Biso   1.000  C
  C100     1.0000 0.69511  0.57227  0.86631  Biso   1.000  C
  C101     1.0000 0.86631  0.86631  0.57227  Biso   1.000  C
  C102     1.0000 0.57227  0.69511  0.86631  Biso   1.000  C
  C103     1.0000 0.69511  0.86631  0.57227  Biso   1.000  C
  C104     1.0000 0.86631  0.57227  0.86631  Biso   1.000  C
  C105     1.0000 0.57227  0.86631  0.69511  Biso   1.000  C
  C106     1.0000 0.86631  0.69511  0.86631  Biso   1.000  C
  O1       1.0000 0.84230  0.01825  0.13222  Biso   1.000  O
  O2       1.0000 0.41624  0.59220  0.53518  Biso   1.000  O
  O3       1.0000 0.58741  0.42103  0.53518  Biso   1.000  O
  O4       1.0000 0.01347  0.84709  0.13222  Biso   1.000  O
  O5       1.0000 0.01355  0.01833  0.96084  Biso   1.000  O
  O6       1.0000 0.01329  0.01808  0.13235  Biso   1.000  O
  O7       1.0000 0.41617  0.42096  0.70656  Biso   1.000  O
  O8       1.0000 0.41642  0.42121  0.53506  Biso   1.000  O
  O9       1.0000 0.87759  0.17273  0.75738  Biso   1.000  O
  O10      1.0000 0.63770  0.17120  0.99777  Biso   1.000  O
  O11      1.0000 0.63573  0.88377  0.28436  Biso   1.000  O
  O12      1.0000 0.26177  0.55691  0.91002  Biso   1.000  O
  O13      1.0000 0.26330  0.79680  0.66964  Biso   1.000  O
  O14      1.0000 0.55073  0.79877  0.38305  Biso   1.000  O
  O15      1.0000 0.55212  0.26656  0.91002  Biso   1.000  O
  O16      1.0000 0.79201  0.26808  0.66964  Biso   1.000  O
  O17      1.0000 0.79398  0.55552  0.38305  Biso   1.000  O
  O18      1.0000 0.16794  0.88237  0.75738  Biso   1.000  O
  O19      1.0000 0.16642  0.64249  0.99777  Biso   1.000  O
  O20      1.0000 0.87898  0.64052  0.28436  Biso   1.000  O
  O21      1.0000 0.84520  0.10516  0.95644  Biso   1.000  O
  O22      1.0000 0.77691  0.16877  0.89800  Biso   1.000  O
  O23      1.0000 0.81506  0.19383  0.78337  Biso   1.000  O
  O24      1.0000 0.66438  0.19241  0.93543  Biso   1.000  O
  O25      1.0000 0.84166  0.10456  0.21840  Biso   1.000  O
  O26      1.0000 0.66143  0.82153  0.30771  Biso   1.000  O
  O27      1.0000 0.32933  0.58931  0.71097  Biso   1.000  O
  O28      1.0000 0.26573  0.65759  0.76940  Biso   1.000  O
  O29      1.0000 0.24067  0.61944  0.88403  Biso   1.000  O
  O30      1.0000 0.24209  0.77012  0.73198  Biso   1.000  O
  O31      1.0000 0.32993  0.59284  0.44900  Biso   1.000  O
  O32      1.0000 0.61297  0.77307  0.35969  Biso   1.000  O
  O33      1.0000 0.58452  0.33412  0.71097  Biso   1.000  O
  O34      1.0000 0.65280  0.27052  0.76940  Biso   1.000  O
  O35      1.0000 0.61465  0.24546  0.88403  Biso   1.000  O
  O36      1.0000 0.76534  0.24688  0.73198  Biso   1.000  O
  O37      1.0000 0.58805  0.33472  0.44900  Biso   1.000  O
  O38      1.0000 0.76829  0.61775  0.35969  Biso   1.000  O
  O39      1.0000 0.10038  0.84998  0.95644  Biso   1.000  O
  O40      1.0000 0.16398  0.78169  0.89800  Biso   1.000  O
  O41      1.0000 0.18904  0.81985  0.78337  Biso   1.000  O
  O42      1.0000 0.18762  0.66917  0.93543  Biso   1.000  O
  O43      1.0000 0.09978  0.84645  0.21840  Biso   1.000  O
  O44      1.0000 0.81675  0.66621  0.30771  Biso   1.000  O
  O45      1.0000 0.10067  0.10546  0.95653  Biso   1.000  O
  O46      1.0000 0.84059  0.84538  0.21752  Biso   1.000  O
  O47      1.0000 0.77669  0.78148  0.28533  Biso   1.000  O
  O48      1.0000 0.32904  0.33383  0.71087  Biso   1.000  O
  O49      1.0000 0.58912  0.59391  0.44988  Biso   1.000  O
  O50      1.0000 0.65302  0.65781  0.38207  Biso   1.000  O
  O51      1.0000 0.92160  0.08914  0.91325  Biso   1.000  O
  O52      1.0000 0.79419  0.08992  0.03793  Biso   1.000  O
  O53      1.0000 0.92139  0.08932  0.20238  Biso   1.000  O
  O54      1.0000 0.79282  0.08952  0.20247  Biso   1.000  O
  O55      1.0000 0.79311  0.92568  0.20404  Biso   1.000  O
  O56      1.0000 0.34535  0.51291  0.75416  Biso   1.000  O
  O57      1.0000 0.34458  0.64031  0.62948  Biso   1.000  O
  O58      1.0000 0.34517  0.51312  0.46503  Biso   1.000  O
  O59      1.0000 0.34498  0.64168  0.46493  Biso   1.000  O
  O60      1.0000 0.50881  0.64139  0.46337  Biso   1.000  O
  O61      1.0000 0.50812  0.35014  0.75416  Biso   1.000  O
  O62      1.0000 0.63552  0.34937  0.62948  Biso   1.000  O
  O63      1.0000 0.50833  0.34996  0.46503  Biso   1.000  O
  O64      1.0000 0.63689  0.34977  0.46493  Biso   1.000  O
  O65      1.0000 0.63660  0.51360  0.46337  Biso   1.000  O
  O66      1.0000 0.08436  0.92638  0.91325  Biso   1.000  O
  O67      1.0000 0.08513  0.79898  0.03793  Biso   1.000  O
  O68      1.0000 0.08454  0.92617  0.20238  Biso   1.000  O
  O69      1.0000 0.08473  0.79760  0.20247  Biso   1.000  O
  O70      1.0000 0.92090  0.79790  0.20404  Biso   1.000  O
  O71      1.0000 0.96936  0.97415  0.09059  Biso   1.000  O
  O72      1.0000 0.08426  0.08905  0.91178  Biso   1.000  O
  O73      1.0000 0.08416  0.08894  0.03969  Biso   1.000  O
  O74      1.0000 0.46035  0.46514  0.57681  Biso   1.000  O
  O75      1.0000 0.34545  0.35024  0.75562  Biso   1.000  O
  O76      1.0000 0.34556  0.35035  0.62772  Biso   1.000  O
