data_image0
_cell_length_a       18.283
_cell_length_b       18.283
_cell_length_c       18.283
_cell_angle_alpha    60
_cell_angle_beta     60
_cell_angle_gamma    60

_symmetry_space_group_name_H-M    "P 1"
_symmetry_int_tables_number       1

loop_
  _symmetry_equiv_pos_as_xyz
  'x, y, z'

loop_
  _atom_site_label
  _atom_site_occupancy
  _atom_site_fract_x
  _atom_site_fract_y
  _atom_site_fract_z
  _atom_site_thermal_displace_type
  _atom_site_B_iso_or_equiv
  _atom_site_type_symbol
  Zn1      1.0000 0.20657  0.38031  0.20656  Biso   1.000  Zn
  Zn2      1.0000 0.38032  0.20656  0.20656  Biso   1.000  Zn
  Zn3      1.0000 0.20657  0.20656  0.20656  Biso   1.000  Zn
  Zn4      1.0000 0.20657  0.20656  0.38031  Biso   1.000  Zn
  Zn5      1.0000 0.61968  0.79344  0.79344  Biso   1.000  Zn
  Zn6      1.0000 0.79343  0.61969  0.79344  Biso   1.000  Zn
  Zn7      1.0000 0.79343  0.79344  0.79344  Biso   1.000  Zn
  Zn8      1.0000 0.79343  0.79344  0.61969  Biso   1.000  Zn
  H1       1.0000 0.04500  0.56540  0.04500  Biso   1.000  H
  H2       1.0000 0.56540  0.04500  0.34460  Biso   1.000  H
  H3       1.0000 0.04500  0.34460  0.04500  Biso   1.000  H
  H4       1.0000 0.34460  0.04500  0.56540  Biso   1.000  H
  H5       1.0000 0.04500  0.04500  0.34460  Biso   1.000  H
  H6       1.0000 0.56540  0.34460  0.04500  Biso   1.000  H
  H7       1.0000 0.04500  0.04500  0.56540  Biso   1.000  H
  H8       1.0000 0.34460  0.56540  0.04500  Biso   1.000  H
  H9       1.0000 0.04500  0.34460  0.56540  Biso   1.000  H
  H10      1.0000 0.56540  0.04500  0.04500  Biso   1.000  H
  H11      1.0000 0.04500  0.56540  0.34460  Biso   1.000  H
  H12      1.0000 0.34460  0.04500  0.04500  Biso   1.000  H
  H13      1.0000 0.43460  0.95500  0.95500  Biso   1.000  H
  H14      1.0000 0.95500  0.43460  0.65540  Biso   1.000  H
  H15      1.0000 0.65540  0.95500  0.95500  Biso   1.000  H
  H16      1.0000 0.95500  0.65540  0.43460  Biso   1.000  H
  H17      1.0000 0.95500  0.95500  0.65540  Biso   1.000  H
  H18      1.0000 0.65540  0.43460  0.95500  Biso   1.000  H
  H19      1.0000 0.95500  0.95500  0.43460  Biso   1.000  H
  H20      1.0000 0.43460  0.65540  0.95500  Biso   1.000  H
  H21      1.0000 0.65540  0.95500  0.43460  Biso   1.000  H
  H22      1.0000 0.95500  0.43460  0.95500  Biso   1.000  H
  H23      1.0000 0.43460  0.95500  0.65540  Biso   1.000  H
  H24      1.0000 0.95500  0.65540  0.95500  Biso   1.000  H
  C1       1.0000 0.02670  0.53864  0.02670  Biso   1.000  C
  C2       1.0000 0.53864  0.02670  0.40796  Biso   1.000  C
  C3       1.0000 0.02670  0.40796  0.02670  Biso   1.000  C
  C4       1.0000 0.40796  0.02670  0.53864  Biso   1.000  C
  C5       1.0000 0.02670  0.02670  0.40796  Biso   1.000  C
  C6       1.0000 0.53864  0.40796  0.02670  Biso   1.000  C
  C7       1.0000 0.02670  0.02670  0.53864  Biso   1.000  C
  C8       1.0000 0.40796  0.53864  0.02670  Biso   1.000  C
  C9       1.0000 0.02670  0.40796  0.53864  Biso   1.000  C
  C10      1.0000 0.53864  0.02670  0.02670  Biso   1.000  C
  C11      1.0000 0.02670  0.53864  0.40796  Biso   1.000  C
  C12      1.0000 0.40796  0.02670  0.02670  Biso   1.000  C
  C13      1.0000 0.46136  0.97330  0.97330  Biso   1.000  C
  C14      1.0000 0.97330  0.46136  0.59204  Biso   1.000  C
  C15      1.0000 0.59204  0.97330  0.97330  Biso   1.000  C
  C16      1.0000 0.97330  0.59204  0.46136  Biso   1.000  C
  C17      1.0000 0.97330  0.97330  0.59204  Biso   1.000  C
  C18      1.0000 0.59204  0.46136  0.97330  Biso   1.000  C
  C19      1.0000 0.97330  0.97330  0.46136  Biso   1.000  C
  C20      1.0000 0.46136  0.59204  0.97330  Biso   1.000  C
  C21      1.0000 0.59204  0.97330  0.46136  Biso   1.000  C
  C22      1.0000 0.97330  0.46136  0.97330  Biso   1.000  C
  C23      1.0000 0.46136  0.97330  0.59204  Biso   1.000  C
  C24      1.0000 0.97330  0.59204  0.97330  Biso   1.000  C
  C25      1.0000 0.11148  0.38852  0.11148  Biso   1.000  C
  C26      1.0000 0.05372  0.44628  0.05372  Biso   1.000  C
  C27      1.0000 0.38852  0.11148  0.38852  Biso   1.000  C
  C28      1.0000 0.44628  0.05372  0.44628  Biso   1.000  C
  C29      1.0000 0.11148  0.11148  0.38852  Biso   1.000  C
  C30      1.0000 0.05372  0.05372  0.44628  Biso   1.000  C
  C31      1.0000 0.38852  0.38852  0.11148  Biso   1.000  C
  C32      1.0000 0.44628  0.44628  0.05372  Biso   1.000  C
  C33      1.0000 0.11148  0.38852  0.38852  Biso   1.000  C
  C34      1.0000 0.05372  0.44628  0.44628  Biso   1.000  C
  C35      1.0000 0.38852  0.11148  0.11148  Biso   1.000  C
  C36      1.0000 0.44628  0.05372  0.05372  Biso   1.000  C
  C37      1.0000 0.61148  0.88852  0.88852  Biso   1.000  C
  C38      1.0000 0.55372  0.94628  0.94628  Biso   1.000  C
  C39      1.0000 0.88852  0.61148  0.61148  Biso   1.000  C
  C40      1.0000 0.94628  0.55372  0.55372  Biso   1.000  C
  C41      1.0000 0.88852  0.88852  0.61148  Biso   1.000  C
  C42      1.0000 0.94628  0.94628  0.55372  Biso   1.000  C
  C43      1.0000 0.61148  0.61148  0.88852  Biso   1.000  C
  C44      1.0000 0.55372  0.55372  0.94628  Biso   1.000  C
  C45      1.0000 0.61148  0.88852  0.61148  Biso   1.000  C
  C46      1.0000 0.55372  0.94628  0.55372  Biso   1.000  C
  C47      1.0000 0.88852  0.61148  0.88852  Biso   1.000  C
  C48      1.0000 0.94628  0.55372  0.94628  Biso   1.000  C
  O1       1.0000 0.25000  0.25000  0.25000  Biso   1.000  O
  O2       1.0000 0.75000  0.75000  0.75000  Biso   1.000  O
  O3       1.0000 0.13373  0.42751  0.13373  Biso   1.000  O
  O4       1.0000 0.42751  0.13373  0.30503  Biso   1.000  O
  O5       1.0000 0.13373  0.30503  0.13373  Biso   1.000  O
  O6       1.0000 0.30503  0.13373  0.42751  Biso   1.000  O
  O7       1.0000 0.13373  0.13373  0.30503  Biso   1.000  O
  O8       1.0000 0.42751  0.30503  0.13373  Biso   1.000  O
  O9       1.0000 0.13373  0.13373  0.42751  Biso   1.000  O
  O10      1.0000 0.30503  0.42751  0.13373  Biso   1.000  O
  O11      1.0000 0.13373  0.30503  0.42751  Biso   1.000  O
  O12      1.0000 0.42751  0.13373  0.13373  Biso   1.000  O
  O13      1.0000 0.13373  0.42751  0.30503  Biso   1.000  O
  O14      1.0000 0.30503  0.13373  0.13373  Biso   1.000  O
  O15      1.0000 0.57249  0.86627  0.86627  Biso   1.000  O
  O16      1.0000 0.86627  0.57249  0.69497  Biso   1.000  O
  O17      1.0000 0.69497  0.86627  0.86627  Biso   1.000  O
  O18      1.0000 0.86627  0.69497  0.57249  Biso   1.000  O
  O19      1.0000 0.86627  0.86627  0.69497  Biso   1.000  O
  O20      1.0000 0.69497  0.57249  0.86627  Biso   1.000  O
  O21      1.0000 0.86627  0.86627  0.57249  Biso   1.000  O
  O22      1.0000 0.57249  0.69497  0.86627  Biso   1.000  O
  O23      1.0000 0.69497  0.86627  0.57249  Biso   1.000  O
  O24      1.0000 0.86627  0.57249  0.86627  Biso   1.000  O
  O25      1.0000 0.57249  0.86627  0.69497  Biso   1.000  O
  O26      1.0000 0.86627  0.69497  0.86627  Biso   1.000  O
  Zn9      1.0000 0.84504  0.01831  0.13265  Biso   1.000  Zn
  Zn10     1.0000 0.42085  0.59412  0.53692  Biso   1.000  Zn
  Zn11     1.0000 0.59257  0.42240  0.53692  Biso   1.000  Zn
  Zn12     1.0000 0.01676  0.84659  0.13265  Biso   1.000  Zn
  Zn13     1.0000 0.01684  0.01839  0.96072  Biso   1.000  Zn
  Zn14     1.0000 0.01659  0.01814  0.13278  Biso   1.000  Zn
  Zn15     1.0000 0.42077  0.42233  0.70886  Biso   1.000  Zn
  Zn16     1.0000 0.42103  0.42258  0.53680  Biso   1.000  Zn
  H25      1.0000 0.88044  0.17329  0.75984  Biso   1.000  H
  H26      1.0000 0.64303  0.17176  0.99776  Biso   1.000  H
  H27      1.0000 0.64105  0.88339  0.28528  Biso   1.000  H
  H28      1.0000 0.26587  0.55872  0.90973  Biso   1.000  H
  H29      1.0000 0.26740  0.79614  0.67181  Biso   1.000  H
  H30      1.0000 0.55577  0.79811  0.38429  Biso   1.000  H
  H31      1.0000 0.55717  0.26743  0.90973  Biso   1.000  H
  H32      1.0000 0.79459  0.26895  0.67181  Biso   1.000  H
  H33      1.0000 0.79656  0.55733  0.38429  Biso   1.000  H
  H34      1.0000 0.17174  0.88199  0.75984  Biso   1.000  H
  H35      1.0000 0.17021  0.64458  0.99776  Biso   1.000  H
  H36      1.0000 0.88184  0.64260  0.28528  Biso   1.000  H
  C49      1.0000 0.84794  0.10551  0.95629  Biso   1.000  C
  C50      1.0000 0.77944  0.16932  0.89767  Biso   1.000  C
  C51      1.0000 0.81771  0.19446  0.78592  Biso   1.000  C
  C52      1.0000 0.66979  0.19303  0.93522  Biso   1.000  C
  C53      1.0000 0.84440  0.10490  0.21911  Biso   1.000  C
  C54      1.0000 0.66683  0.82095  0.30871  Biso   1.000  C
  C55      1.0000 0.33366  0.59122  0.71328  Biso   1.000  C
  C56      1.0000 0.26985  0.65973  0.77190  Biso   1.000  C
  C57      1.0000 0.24471  0.62146  0.88365  Biso   1.000  C
  C58      1.0000 0.24613  0.76937  0.73436  Biso   1.000  C
  C59      1.0000 0.33426  0.59477  0.45046  Biso   1.000  C
  C60      1.0000 0.61821  0.77233  0.36086  Biso   1.000  C
  C61      1.0000 0.58967  0.33521  0.71328  Biso   1.000  C
  C62      1.0000 0.65818  0.27140  0.77190  Biso   1.000  C
  C63      1.0000 0.61990  0.24626  0.88365  Biso   1.000  C
  C64      1.0000 0.76782  0.24768  0.73436  Biso   1.000  C
  C65      1.0000 0.59321  0.33581  0.45046  Biso   1.000  C
  C66      1.0000 0.77078  0.61976  0.36086  Biso   1.000  C
  C67      1.0000 0.10396  0.84949  0.95629  Biso   1.000  C
  C68      1.0000 0.16777  0.78099  0.89767  Biso   1.000  C
  C69      1.0000 0.19291  0.81926  0.78592  Biso   1.000  C
  C70      1.0000 0.19148  0.67134  0.93522  Biso   1.000  C
  C71      1.0000 0.10335  0.84595  0.21911  Biso   1.000  C
  C72      1.0000 0.81940  0.66838  0.30871  Biso   1.000  C
  C73      1.0000 0.10425  0.10580  0.95639  Biso   1.000  C
  C74      1.0000 0.84332  0.84487  0.21823  Biso   1.000  C
  C75      1.0000 0.77922  0.78077  0.28626  Biso   1.000  C
  C76      1.0000 0.33336  0.33492  0.71318  Biso   1.000  C
  C77      1.0000 0.59429  0.59584  0.45134  Biso   1.000  C
  C78      1.0000 0.65839  0.65995  0.38331  Biso   1.000  C
  O27      1.0000 0.92459  0.08943  0.91297  Biso   1.000  O
  O28      1.0000 0.79678  0.09021  0.03805  Biso   1.000  O
  O29      1.0000 0.92438  0.08961  0.20304  Biso   1.000  O
  O30      1.0000 0.79540  0.08981  0.20313  Biso   1.000  O
  O31      1.0000 0.79569  0.92544  0.20470  Biso   1.000  O
  O32      1.0000 0.34973  0.51457  0.75661  Biso   1.000  O
  O33      1.0000 0.34895  0.64239  0.63152  Biso   1.000  O
  O34      1.0000 0.34955  0.51478  0.46654  Biso   1.000  O
  O35      1.0000 0.34935  0.64377  0.46644  Biso   1.000  O
  O36      1.0000 0.51372  0.64348  0.46487  Biso   1.000  O
  O37      1.0000 0.51302  0.35128  0.75661  Biso   1.000  O
  O38      1.0000 0.64084  0.35050  0.63152  Biso   1.000  O
  O39      1.0000 0.51323  0.35110  0.46654  Biso   1.000  O
  O40      1.0000 0.64222  0.35091  0.46644  Biso   1.000  O
  O41      1.0000 0.64192  0.51527  0.46487  Biso   1.000  O
  O42      1.0000 0.08788  0.92614  0.91297  Biso   1.000  O
  O43      1.0000 0.08866  0.79833  0.03805  Biso   1.000  O
  O44      1.0000 0.08806  0.92593  0.20304  Biso   1.000  O
  O45      1.0000 0.08826  0.79694  0.20313  Biso   1.000  O
  O46      1.0000 0.92389  0.79724  0.20470  Biso   1.000  O
  O47      1.0000 0.97251  0.97406  0.09089  Biso   1.000  O
  O48      1.0000 0.08779  0.08934  0.91150  Biso   1.000  O
  O49      1.0000 0.08768  0.08923  0.03982  Biso   1.000  O
  O50      1.0000 0.46510  0.46665  0.57868  Biso   1.000  O
  O51      1.0000 0.34983  0.35138  0.75808  Biso   1.000  O
  O52      1.0000 0.34993  0.35148  0.62976  Biso   1.000  O
