data_image0
_cell_length_a       18.2943
_cell_length_b       18.2943
_cell_length_c       18.2943
_cell_angle_alpha    60
_cell_angle_beta     60
_cell_angle_gamma    60

_symmetry_space_group_name_H-M    "P 1"
_symmetry_int_tables_number       1

loop_
  _symmetry_equiv_pos_as_xyz
  'x, y, z'

loop_
  _atom_site_label
  _atom_site_occupancy
  _atom_site_fract_x
  _atom_site_fract_y
  _atom_site_fract_z
  _atom_site_thermal_displace_type
  _atom_site_B_iso_or_equiv
  _atom_site_type_symbol
  C1       1.0000 0.20660  0.38020  0.20660  Biso   1.000  C
  C2       1.0000 0.38020  0.20660  0.20660  Biso   1.000  C
  C3       1.0000 0.20660  0.20660  0.20660  Biso   1.000  C
  C4       1.0000 0.20660  0.20660  0.38020  Biso   1.000  C
  C5       1.0000 0.61980  0.79340  0.79340  Biso   1.000  C
  C6       1.0000 0.79340  0.61980  0.79340  Biso   1.000  C
  C7       1.0000 0.79340  0.79340  0.79340  Biso   1.000  C
  C8       1.0000 0.79340  0.79340  0.61980  Biso   1.000  C
  C9       1.0000 0.04510  0.56550  0.04510  Biso   1.000  C
  C10      1.0000 0.56550  0.04510  0.34430  Biso   1.000  C
  C11      1.0000 0.04510  0.34430  0.04510  Biso   1.000  C
  C12      1.0000 0.34430  0.04510  0.56550  Biso   1.000  C
  C13      1.0000 0.04510  0.04510  0.34430  Biso   1.000  C
  C14      1.0000 0.56550  0.34430  0.04510  Biso   1.000  C
  C15      1.0000 0.04510  0.04510  0.56550  Biso   1.000  C
  C16      1.0000 0.34430  0.56550  0.04510  Biso   1.000  C
  C17      1.0000 0.04510  0.34430  0.56550  Biso   1.000  C
  C18      1.0000 0.56550  0.04510  0.04510  Biso   1.000  C
  C19      1.0000 0.04510  0.56550  0.34430  Biso   1.000  C
  C20      1.0000 0.34430  0.04510  0.04510  Biso   1.000  C
  C21      1.0000 0.43450  0.95490  0.95490  Biso   1.000  C
  C22      1.0000 0.95490  0.43450  0.65570  Biso   1.000  C
  C23      1.0000 0.65570  0.95490  0.95490  Biso   1.000  C
  C24      1.0000 0.95490  0.65570  0.43450  Biso   1.000  C
  C25      1.0000 0.95490  0.95490  0.65570  Biso   1.000  C
  C26      1.0000 0.65570  0.43450  0.95490  Biso   1.000  C
  C27      1.0000 0.95490  0.95490  0.43450  Biso   1.000  C
  C28      1.0000 0.43450  0.65570  0.95490  Biso   1.000  C
  C29      1.0000 0.65570  0.95490  0.43450  Biso   1.000  C
  C30      1.0000 0.95490  0.43450  0.95490  Biso   1.000  C
  C31      1.0000 0.43450  0.95490  0.65570  Biso   1.000  C
  C32      1.0000 0.95490  0.65570  0.95490  Biso   1.000  C
  C33      1.0000 0.02675  0.53889  0.02675  Biso   1.000  C
  C34      1.0000 0.53889  0.02675  0.40761  Biso   1.000  C
  C35      1.0000 0.02675  0.40761  0.02675  Biso   1.000  C
  C36      1.0000 0.40761  0.02675  0.53889  Biso   1.000  C
  C37      1.0000 0.02675  0.02675  0.40761  Biso   1.000  C
  C38      1.0000 0.53889  0.40761  0.02675  Biso   1.000  C
  C39      1.0000 0.02675  0.02675  0.53889  Biso   1.000  C
  C40      1.0000 0.40761  0.53889  0.02675  Biso   1.000  C
  C41      1.0000 0.02675  0.40761  0.53889  Biso   1.000  C
  C42      1.0000 0.53889  0.02675  0.02675  Biso   1.000  C
  C43      1.0000 0.02675  0.53889  0.40761  Biso   1.000  C
  C44      1.0000 0.40761  0.02675  0.02675  Biso   1.000  C
  C45      1.0000 0.46111  0.97325  0.97325  Biso   1.000  C
  C46      1.0000 0.97325  0.46111  0.59239  Biso   1.000  C
  C47      1.0000 0.59239  0.97325  0.97325  Biso   1.000  C
  C48      1.0000 0.97325  0.59239  0.46111  Biso   1.000  C
  C49      1.0000 0.97325  0.97325  0.59239  Biso   1.000  C
  C50      1.0000 0.59239  0.46111  0.97325  Biso   1.000  C
  C51      1.0000 0.97325  0.97325  0.46111  Biso   1.000  C
  C52      1.0000 0.46111  0.59239  0.97325  Biso   1.000  C
  C53      1.0000 0.59239  0.97325  0.46111  Biso   1.000  C
  C54      1.0000 0.97325  0.46111  0.97325  Biso   1.000  C
  C55      1.0000 0.46111  0.97325  0.59239  Biso   1.000  C
  C56      1.0000 0.97325  0.59239  0.97325  Biso   1.000  C
  C57      1.0000 0.11147  0.38853  0.11147  Biso   1.000  C
  C58      1.0000 0.05374  0.44626  0.05374  Biso   1.000  C
  C59      1.0000 0.38853  0.11147  0.38853  Biso   1.000  C
  C60      1.0000 0.44626  0.05374  0.44626  Biso   1.000  C
  C61      1.0000 0.11147  0.11147  0.38853  Biso   1.000  C
  C62      1.0000 0.05374  0.05374  0.44626  Biso   1.000  C
  C63      1.0000 0.38853  0.38853  0.11147  Biso   1.000  C
  C64      1.0000 0.44626  0.44626  0.05374  Biso   1.000  C
  C65      1.0000 0.11147  0.38853  0.38853  Biso   1.000  C
  C66      1.0000 0.05374  0.44626  0.44626  Biso   1.000  C
  C67      1.0000 0.38853  0.11147  0.11147  Biso   1.000  C
  C68      1.0000 0.44626  0.05374  0.05374  Biso   1.000  C
  C69      1.0000 0.61147  0.88853  0.88853  Biso   1.000  C
  C70      1.0000 0.55374  0.94626  0.94626  Biso   1.000  C
  C71      1.0000 0.88853  0.61147  0.61147  Biso   1.000  C
  C72      1.0000 0.94626  0.55374  0.55374  Biso   1.000  C
  C73      1.0000 0.88853  0.88853  0.61147  Biso   1.000  C
  C74      1.0000 0.94626  0.94626  0.55374  Biso   1.000  C
  C75      1.0000 0.61147  0.61147  0.88853  Biso   1.000  C
  C76      1.0000 0.55374  0.55374  0.94626  Biso   1.000  C
  C77      1.0000 0.61147  0.88853  0.61147  Biso   1.000  C
  C78      1.0000 0.55374  0.94626  0.55374  Biso   1.000  C
  C79      1.0000 0.88853  0.61147  0.88853  Biso   1.000  C
  C80      1.0000 0.94626  0.55374  0.94626  Biso   1.000  C
  C81      1.0000 0.25000  0.25000  0.25000  Biso   1.000  C
  C82      1.0000 0.75000  0.75000  0.75000  Biso   1.000  C
  C83      1.0000 0.13372  0.42764  0.13372  Biso   1.000  C
  C84      1.0000 0.42764  0.13372  0.30492  Biso   1.000  C
  C85      1.0000 0.13372  0.30492  0.13372  Biso   1.000  C
  C86      1.0000 0.30492  0.13372  0.42764  Biso   1.000  C
  C87      1.0000 0.13372  0.13372  0.30492  Biso   1.000  C
  C88      1.0000 0.42764  0.30492  0.13372  Biso   1.000  C
  C89      1.0000 0.13372  0.13372  0.42764  Biso   1.000  C
  C90      1.0000 0.30492  0.42764  0.13372  Biso   1.000  C
  C91      1.0000 0.13372  0.30492  0.42764  Biso   1.000  C
  C92      1.0000 0.42764  0.13372  0.13372  Biso   1.000  C
  C93      1.0000 0.13372  0.42764  0.30492  Biso   1.000  C
  C94      1.0000 0.30492  0.13372  0.13372  Biso   1.000  C
  C95      1.0000 0.57236  0.86628  0.86628  Biso   1.000  C
  C96      1.0000 0.86628  0.57236  0.69508  Biso   1.000  C
  C97      1.0000 0.69508  0.86628  0.86628  Biso   1.000  C
  C98      1.0000 0.86628  0.69508  0.57236  Biso   1.000  C
  C99      1.0000 0.86628  0.86628  0.69508  Biso   1.000  C
  C100     1.0000 0.69508  0.57236  0.86628  Biso   1.000  C
  C101     1.0000 0.86628  0.86628  0.57236  Biso   1.000  C
  C102     1.0000 0.57236  0.69508  0.86628  Biso   1.000  C
  C103     1.0000 0.69508  0.86628  0.57236  Biso   1.000  C
  C104     1.0000 0.86628  0.57236  0.86628  Biso   1.000  C
  C105     1.0000 0.57236  0.86628  0.69508  Biso   1.000  C
  C106     1.0000 0.86628  0.69508  0.86628  Biso   1.000  C
  O1       1.0000 0.84400  0.01829  0.13249  Biso   1.000  O
  O2       1.0000 0.41909  0.59339  0.53626  Biso   1.000  O
  O3       1.0000 0.59060  0.42188  0.53626  Biso   1.000  O
  O4       1.0000 0.01551  0.84678  0.13249  Biso   1.000  O
  O5       1.0000 0.01558  0.01837  0.96076  Biso   1.000  O
  O6       1.0000 0.01533  0.01811  0.13261  Biso   1.000  O
  O7       1.0000 0.41902  0.42180  0.70798  Biso   1.000  O
  O8       1.0000 0.41927  0.42206  0.53613  Biso   1.000  O
  O9       1.0000 0.87935  0.17307  0.75890  Biso   1.000  O
  O10      1.0000 0.64100  0.17155  0.99776  Biso   1.000  O
  O11      1.0000 0.63902  0.88353  0.28493  Biso   1.000  O
  O12      1.0000 0.26431  0.55803  0.90984  Biso   1.000  O
  O13      1.0000 0.26584  0.79639  0.67098  Biso   1.000  O
  O14      1.0000 0.55385  0.79836  0.38382  Biso   1.000  O
  O15      1.0000 0.55525  0.26710  0.90984  Biso   1.000  O
  O16      1.0000 0.79360  0.26862  0.67098  Biso   1.000  O
  O17      1.0000 0.79558  0.55664  0.38382  Biso   1.000  O
  O18      1.0000 0.17029  0.88214  0.75890  Biso   1.000  O
  O19      1.0000 0.16876  0.64378  0.99776  Biso   1.000  O
  O20      1.0000 0.88075  0.64181  0.28493  Biso   1.000  O
  O21      1.0000 0.84690  0.10538  0.95635  Biso   1.000  O
  O22      1.0000 0.77847  0.16911  0.89780  Biso   1.000  O
  O23      1.0000 0.81670  0.19422  0.78495  Biso   1.000  O
  O24      1.0000 0.66773  0.19280  0.93530  Biso   1.000  O
  O25      1.0000 0.84336  0.10477  0.21884  Biso   1.000  O
  O26      1.0000 0.66477  0.82117  0.30833  Biso   1.000  O
  O27      1.0000 0.33201  0.59049  0.71240  Biso   1.000  O
  O28      1.0000 0.26828  0.65892  0.77095  Biso   1.000  O
  O29      1.0000 0.24317  0.62069  0.88380  Biso   1.000  O
  O30      1.0000 0.24459  0.76966  0.73345  Biso   1.000  O
  O31      1.0000 0.33261  0.59403  0.44991  Biso   1.000  O
  O32      1.0000 0.61621  0.77262  0.36042  Biso   1.000  O
  O33      1.0000 0.58770  0.33480  0.71240  Biso   1.000  O
  O34      1.0000 0.65613  0.27106  0.77095  Biso   1.000  O
  O35      1.0000 0.61790  0.24595  0.88380  Biso   1.000  O
  O36      1.0000 0.76688  0.24738  0.73345  Biso   1.000  O
  O37      1.0000 0.59124  0.33540  0.44991  Biso   1.000  O
  O38      1.0000 0.76983  0.61900  0.36042  Biso   1.000  O
  O39      1.0000 0.10259  0.84968  0.95635  Biso   1.000  O
  O40      1.0000 0.16632  0.78126  0.89780  Biso   1.000  O
  O41      1.0000 0.19143  0.81948  0.78495  Biso   1.000  O
  O42      1.0000 0.19001  0.67051  0.93530  Biso   1.000  O
  O43      1.0000 0.10199  0.84614  0.21884  Biso   1.000  O
  O44      1.0000 0.81839  0.66756  0.30833  Biso   1.000  O
  O45      1.0000 0.10289  0.10567  0.95645  Biso   1.000  O
  O46      1.0000 0.84228  0.84506  0.21796  Biso   1.000  O
  O47      1.0000 0.77826  0.78104  0.28591  Biso   1.000  O
  O48      1.0000 0.33172  0.33450  0.71230  Biso   1.000  O
  O49      1.0000 0.59232  0.59511  0.45079  Biso   1.000  O
  O50      1.0000 0.65634  0.65913  0.38284  Biso   1.000  O
  O51      1.0000 0.92345  0.08932  0.91307  Biso   1.000  O
  O52      1.0000 0.79579  0.09010  0.03800  Biso   1.000  O
  O53      1.0000 0.92324  0.08950  0.20278  Biso   1.000  O
  O54      1.0000 0.79441  0.08970  0.20288  Biso   1.000  O
  O55      1.0000 0.79471  0.92553  0.20445  Biso   1.000  O
  O56      1.0000 0.34806  0.51394  0.75567  Biso   1.000  O
  O57      1.0000 0.34728  0.64160  0.63074  Biso   1.000  O
  O58      1.0000 0.34788  0.51415  0.46596  Biso   1.000  O
  O59      1.0000 0.34769  0.64298  0.46586  Biso   1.000  O
  O60      1.0000 0.51185  0.64268  0.46430  Biso   1.000  O
  O61      1.0000 0.51115  0.35085  0.75567  Biso   1.000  O
  O62      1.0000 0.63881  0.35007  0.63074  Biso   1.000  O
  O63      1.0000 0.51136  0.35067  0.46596  Biso   1.000  O
  O64      1.0000 0.64019  0.35047  0.46586  Biso   1.000  O
  O65      1.0000 0.63989  0.51464  0.46430  Biso   1.000  O
  O66      1.0000 0.08654  0.92623  0.91307  Biso   1.000  O
  O67      1.0000 0.08732  0.79858  0.03800  Biso   1.000  O
  O68      1.0000 0.08672  0.92602  0.20278  Biso   1.000  O
  O69      1.0000 0.08692  0.79720  0.20288  Biso   1.000  O
  O70      1.0000 0.92275  0.79749  0.20445  Biso   1.000  O
  O71      1.0000 0.97131  0.97409  0.09078  Biso   1.000  O
  O72      1.0000 0.08644  0.08923  0.91160  Biso   1.000  O
  O73      1.0000 0.08634  0.08912  0.03977  Biso   1.000  O
  O74      1.0000 0.46329  0.46608  0.57797  Biso   1.000  O
  O75      1.0000 0.34816  0.35095  0.75714  Biso   1.000  O
  O76      1.0000 0.34826  0.35105  0.62898  Biso   1.000  O
