data_image0
_cell_length_a       18.228
_cell_length_b       18.228
_cell_length_c       18.228
_cell_angle_alpha    60
_cell_angle_beta     60
_cell_angle_gamma    60

_symmetry_space_group_name_H-M    "P 1"
_symmetry_int_tables_number       1

loop_
  _symmetry_equiv_pos_as_xyz
  'x, y, z'

loop_
  _atom_site_label
  _atom_site_occupancy
  _atom_site_fract_x
  _atom_site_fract_y
  _atom_site_fract_z
  _atom_site_thermal_displace_type
  _atom_site_B_iso_or_equiv
  _atom_site_type_symbol
  Zn1      1.0000 0.29358  0.29359  0.11924  Biso   1.000  Zn
  Zn2      1.0000 0.29358  0.29359  0.29359  Biso   1.000  Zn
  Zn3      1.0000 0.11923  0.29359  0.29359  Biso   1.000  Zn
  Zn4      1.0000 0.29358  0.11924  0.29359  Biso   1.000  Zn
  Zn5      1.0000 0.70642  0.70641  0.88076  Biso   1.000  Zn
  Zn6      1.0000 0.70642  0.70641  0.70641  Biso   1.000  Zn
  Zn7      1.0000 0.70642  0.88076  0.70641  Biso   1.000  Zn
  Zn8      1.0000 0.88077  0.70641  0.70641  Biso   1.000  Zn
  H1       1.0000 0.45570  0.45570  0.93670  Biso   1.000  H
  H2       1.0000 0.45570  0.45570  0.15190  Biso   1.000  H
  H3       1.0000 0.93670  0.15190  0.45570  Biso   1.000  H
  H4       1.0000 0.15190  0.93670  0.45570  Biso   1.000  H
  H5       1.0000 0.45570  0.93670  0.15190  Biso   1.000  H
  H6       1.0000 0.45570  0.15190  0.93670  Biso   1.000  H
  H7       1.0000 0.93670  0.45570  0.45570  Biso   1.000  H
  H8       1.0000 0.15190  0.45570  0.45570  Biso   1.000  H
  H9       1.0000 0.45570  0.15190  0.45570  Biso   1.000  H
  H10      1.0000 0.45570  0.93670  0.45570  Biso   1.000  H
  H11      1.0000 0.93670  0.45570  0.15190  Biso   1.000  H
  H12      1.0000 0.15190  0.45570  0.93670  Biso   1.000  H
  H13      1.0000 0.54430  0.54430  0.06330  Biso   1.000  H
  H14      1.0000 0.54430  0.54430  0.84810  Biso   1.000  H
  H15      1.0000 0.84810  0.06330  0.54430  Biso   1.000  H
  H16      1.0000 0.06330  0.84810  0.54430  Biso   1.000  H
  H17      1.0000 0.06330  0.54430  0.84810  Biso   1.000  H
  H18      1.0000 0.84810  0.54430  0.06330  Biso   1.000  H
  H19      1.0000 0.54430  0.06330  0.54430  Biso   1.000  H
  H20      1.0000 0.54430  0.84810  0.54430  Biso   1.000  H
  H21      1.0000 0.84810  0.54430  0.54430  Biso   1.000  H
  H22      1.0000 0.06330  0.54430  0.54430  Biso   1.000  H
  H23      1.0000 0.54430  0.06330  0.84810  Biso   1.000  H
  H24      1.0000 0.54430  0.84810  0.06330  Biso   1.000  H
  C1       1.0000 0.47340  0.47340  0.96356  Biso   1.000  C
  C2       1.0000 0.47340  0.47340  0.08964  Biso   1.000  C
  C3       1.0000 0.96356  0.08964  0.47340  Biso   1.000  C
  C4       1.0000 0.08964  0.96356  0.47340  Biso   1.000  C
  C5       1.0000 0.47340  0.96356  0.08964  Biso   1.000  C
  C6       1.0000 0.47340  0.08964  0.96356  Biso   1.000  C
  C7       1.0000 0.96356  0.47340  0.47340  Biso   1.000  C
  C8       1.0000 0.08964  0.47340  0.47340  Biso   1.000  C
  C9       1.0000 0.47340  0.08964  0.47340  Biso   1.000  C
  C10      1.0000 0.47340  0.96356  0.47340  Biso   1.000  C
  C11      1.0000 0.96356  0.47340  0.08964  Biso   1.000  C
  C12      1.0000 0.08964  0.47340  0.96356  Biso   1.000  C
  C13      1.0000 0.52660  0.52660  0.03644  Biso   1.000  C
  C14      1.0000 0.52660  0.52660  0.91036  Biso   1.000  C
  C15      1.0000 0.91036  0.03644  0.52660  Biso   1.000  C
  C16      1.0000 0.03644  0.91036  0.52660  Biso   1.000  C
  C17      1.0000 0.03644  0.52660  0.91036  Biso   1.000  C
  C18      1.0000 0.91036  0.52660  0.03644  Biso   1.000  C
  C19      1.0000 0.52660  0.03644  0.52660  Biso   1.000  C
  C20      1.0000 0.52660  0.91036  0.52660  Biso   1.000  C
  C21      1.0000 0.91036  0.52660  0.52660  Biso   1.000  C
  C22      1.0000 0.03644  0.52660  0.52660  Biso   1.000  C
  C23      1.0000 0.52660  0.03644  0.91036  Biso   1.000  C
  C24      1.0000 0.52660  0.91036  0.03644  Biso   1.000  C
  C25      1.0000 0.38850  0.38850  0.11150  Biso   1.000  C
  C26      1.0000 0.44610  0.44610  0.05390  Biso   1.000  C
  C27      1.0000 0.11150  0.11150  0.38850  Biso   1.000  C
  C28      1.0000 0.05390  0.05390  0.44610  Biso   1.000  C
  C29      1.0000 0.38850  0.11150  0.11150  Biso   1.000  C
  C30      1.0000 0.44610  0.05390  0.05390  Biso   1.000  C
  C31      1.0000 0.11150  0.38850  0.38850  Biso   1.000  C
  C32      1.0000 0.05390  0.44610  0.44610  Biso   1.000  C
  C33      1.0000 0.38850  0.11150  0.38850  Biso   1.000  C
  C34      1.0000 0.44610  0.05390  0.44610  Biso   1.000  C
  C35      1.0000 0.11150  0.38850  0.11150  Biso   1.000  C
  C36      1.0000 0.05390  0.44610  0.05390  Biso   1.000  C
  C37      1.0000 0.61150  0.61150  0.88850  Biso   1.000  C
  C38      1.0000 0.55390  0.55390  0.94610  Biso   1.000  C
  C39      1.0000 0.88850  0.88850  0.61150  Biso   1.000  C
  C40      1.0000 0.94610  0.94610  0.55390  Biso   1.000  C
  C41      1.0000 0.88850  0.61150  0.88850  Biso   1.000  C
  C42      1.0000 0.94610  0.55390  0.94610  Biso   1.000  C
  C43      1.0000 0.61150  0.88850  0.61150  Biso   1.000  C
  C44      1.0000 0.55390  0.94610  0.55390  Biso   1.000  C
  C45      1.0000 0.88850  0.61150  0.61150  Biso   1.000  C
  C46      1.0000 0.94610  0.55390  0.55390  Biso   1.000  C
  C47      1.0000 0.61150  0.88850  0.88850  Biso   1.000  C
  C48      1.0000 0.55390  0.94610  0.94610  Biso   1.000  C
  O1       1.0000 0.25000  0.25000  0.25000  Biso   1.000  O
  O2       1.0000 0.75000  0.75000  0.75000  Biso   1.000  O
  O3       1.0000 0.36610  0.36610  0.07322  Biso   1.000  O
  O4       1.0000 0.36610  0.36610  0.19458  Biso   1.000  O
  O5       1.0000 0.07322  0.19458  0.36610  Biso   1.000  O
  O6       1.0000 0.19458  0.07322  0.36610  Biso   1.000  O
  O7       1.0000 0.36610  0.07322  0.19458  Biso   1.000  O
  O8       1.0000 0.36610  0.19458  0.07322  Biso   1.000  O
  O9       1.0000 0.07322  0.36610  0.36610  Biso   1.000  O
  O10      1.0000 0.19458  0.36610  0.36610  Biso   1.000  O
  O11      1.0000 0.36610  0.19458  0.36610  Biso   1.000  O
  O12      1.0000 0.36610  0.07322  0.36610  Biso   1.000  O
  O13      1.0000 0.07322  0.36610  0.19458  Biso   1.000  O
  O14      1.0000 0.19458  0.36610  0.07322  Biso   1.000  O
  O15      1.0000 0.63390  0.63390  0.92678  Biso   1.000  O
  O16      1.0000 0.63390  0.63390  0.80542  Biso   1.000  O
  O17      1.0000 0.80542  0.92678  0.63390  Biso   1.000  O
  O18      1.0000 0.92678  0.80542  0.63390  Biso   1.000  O
  O19      1.0000 0.92678  0.63390  0.80542  Biso   1.000  O
  O20      1.0000 0.80542  0.63390  0.92678  Biso   1.000  O
  O21      1.0000 0.63390  0.92678  0.63390  Biso   1.000  O
  O22      1.0000 0.63390  0.80542  0.63390  Biso   1.000  O
  O23      1.0000 0.80542  0.63390  0.63390  Biso   1.000  O
  O24      1.0000 0.92678  0.63390  0.63390  Biso   1.000  O
  O25      1.0000 0.63390  0.92678  0.80542  Biso   1.000  O
  O26      1.0000 0.63390  0.80542  0.92678  Biso   1.000  O
  Zn9      1.0000 0.50907  0.51432  0.66234  Biso   1.000  Zn
  Zn10     1.0000 0.50908  0.34266  0.66234  Biso   1.000  Zn
  Zn11     1.0000 0.50908  0.51432  0.49068  Biso   1.000  Zn
  Zn12     1.0000 0.33742  0.51432  0.66234  Biso   1.000  Zn
  Zn13     1.0000 0.89326  0.11015  0.08650  Biso   1.000  Zn
  Zn14     1.0000 0.89326  0.93849  0.08650  Biso   1.000  Zn
  Zn15     1.0000 0.89326  0.93849  0.25816  Biso   1.000  Zn
  Zn16     1.0000 0.06492  0.93849  0.08650  Biso   1.000  Zn
  C49      1.0000 0.68627  0.30716  0.83953  Biso   1.000  C
  C50      1.0000 0.68627  0.19544  0.83953  Biso   1.000  C
  C51      1.0000 0.30191  0.69152  0.34345  Biso   1.000  C
  C52      1.0000 0.19019  0.69152  0.45517  Biso   1.000  C
  C53      1.0000 0.30191  0.69152  0.83953  Biso   1.000  C
  C54      1.0000 0.19019  0.69152  0.83953  Biso   1.000  C
  C55      1.0000 0.68627  0.19544  0.45517  Biso   1.000  C
  C56      1.0000 0.68627  0.30716  0.34345  Biso   1.000  C
  C57      1.0000 0.68627  0.69152  0.45517  Biso   1.000  C
  C58      1.0000 0.68627  0.69152  0.34345  Biso   1.000  C
  C59      1.0000 0.19019  0.30716  0.83954  Biso   1.000  C
  C60      1.0000 0.30191  0.19544  0.83954  Biso   1.000  C
  C61      1.0000 0.71607  0.25737  0.90931  Biso   1.000  C
  C62      1.0000 0.71607  0.14565  0.90931  Biso   1.000  C
  C63      1.0000 0.10043  0.76129  0.40539  Biso   1.000  C
  C64      1.0000 0.21215  0.76129  0.29367  Biso   1.000  C
  C65      1.0000 0.10043  0.25737  0.90931  Biso   1.000  C
  C66      1.0000 0.21215  0.14565  0.90931  Biso   1.000  C
  C67      1.0000 0.71607  0.76129  0.29367  Biso   1.000  C
  C68      1.0000 0.71607  0.76129  0.40539  Biso   1.000  C
  C69      1.0000 0.71607  0.25737  0.29367  Biso   1.000  C
  C70      1.0000 0.71607  0.14565  0.40539  Biso   1.000  C
  C71      1.0000 0.21215  0.76129  0.90931  Biso   1.000  C
  C72      1.0000 0.10043  0.76129  0.90931  Biso   1.000  C
  C73      1.0000 0.65785  0.27972  0.81111  Biso   1.000  C
  C74      1.0000 0.60307  0.33450  0.75633  Biso   1.000  C
  C75      1.0000 0.27447  0.66310  0.42773  Biso   1.000  C
  C76      1.0000 0.32925  0.60831  0.48252  Biso   1.000  C
  C77      1.0000 0.27447  0.66310  0.81111  Biso   1.000  C
  C78      1.0000 0.32925  0.60831  0.75633  Biso   1.000  C
  C79      1.0000 0.65785  0.27972  0.42773  Biso   1.000  C
  C80      1.0000 0.60307  0.33450  0.48252  Biso   1.000  C
  C81      1.0000 0.65785  0.66310  0.42773  Biso   1.000  C
  C82      1.0000 0.60307  0.60831  0.48252  Biso   1.000  C
  C83      1.0000 0.27447  0.27972  0.81111  Biso   1.000  C
  C84      1.0000 0.32925  0.33450  0.75633  Biso   1.000  C
  C85      1.0000 0.74449  0.17309  0.93773  Biso   1.000  C
  C86      1.0000 0.79927  0.11831  0.99251  Biso   1.000  C
  C87      1.0000 0.12787  0.78971  0.32111  Biso   1.000  C
  C88      1.0000 0.07308  0.84449  0.26633  Biso   1.000  C
  C89      1.0000 0.12787  0.17309  0.93773  Biso   1.000  C
  C90      1.0000 0.07308  0.11831  0.99251  Biso   1.000  C
  C91      1.0000 0.74449  0.78971  0.32111  Biso   1.000  C
  C92      1.0000 0.79927  0.84449  0.26633  Biso   1.000  C
  C93      1.0000 0.74449  0.17309  0.32111  Biso   1.000  C
  C94      1.0000 0.79927  0.11831  0.26633  Biso   1.000  C
  C95      1.0000 0.12787  0.78971  0.93773  Biso   1.000  C
  C96      1.0000 0.07308  0.84449  0.99251  Biso   1.000  C
  O27      1.0000 0.46616  0.47141  0.61942  Biso   1.000  O
  O28      1.0000 0.93618  0.98140  0.12942  Biso   1.000  O
  O29      1.0000 0.57955  0.41662  0.73281  Biso   1.000  O
  O30      1.0000 0.57955  0.29941  0.73281  Biso   1.000  O
  O31      1.0000 0.41138  0.58479  0.44743  Biso   1.000  O
  O32      1.0000 0.29417  0.58479  0.56464  Biso   1.000  O
  O33      1.0000 0.41138  0.58479  0.73281  Biso   1.000  O
  O34      1.0000 0.29417  0.58479  0.73281  Biso   1.000  O
  O35      1.0000 0.57955  0.29942  0.56464  Biso   1.000  O
  O36      1.0000 0.57955  0.41662  0.44743  Biso   1.000  O
  O37      1.0000 0.57955  0.58479  0.56464  Biso   1.000  O
  O38      1.0000 0.57955  0.58479  0.44743  Biso   1.000  O
  O39      1.0000 0.29417  0.41662  0.73281  Biso   1.000  O
  O40      1.0000 0.41138  0.29941  0.73281  Biso   1.000  O
  O41      1.0000 0.82279  0.15339  0.01603  Biso   1.000  O
  O42      1.0000 0.82279  0.03618  0.01603  Biso   1.000  O
  O43      1.0000 0.99096  0.86801  0.30141  Biso   1.000  O
  O44      1.0000 0.10817  0.86801  0.18420  Biso   1.000  O
  O45      1.0000 0.99096  0.15339  0.01603  Biso   1.000  O
  O46      1.0000 0.10817  0.03618  0.01603  Biso   1.000  O
  O47      1.0000 0.82279  0.86801  0.18420  Biso   1.000  O
  O48      1.0000 0.82279  0.86801  0.30141  Biso   1.000  O
  O49      1.0000 0.82279  0.15339  0.18420  Biso   1.000  O
  O50      1.0000 0.82279  0.03618  0.30141  Biso   1.000  O
  O51      1.0000 0.10817  0.86801  0.01603  Biso   1.000  O
  O52      1.0000 0.99096  0.86801  0.01603  Biso   1.000  O
  H25      1.0000 0.66439  0.38267  0.81764  Biso   1.000  H
  H26      1.0000 0.66439  0.16370  0.81764  Biso   1.000  H
  H27      1.0000 0.37743  0.66962  0.31172  Biso   1.000  H
  H28      1.0000 0.15847  0.66962  0.53068  Biso   1.000  H
  H29      1.0000 0.15847  0.66962  0.81764  Biso   1.000  H
  H30      1.0000 0.66439  0.16370  0.53068  Biso   1.000  H
  H31      1.0000 0.66439  0.38267  0.31172  Biso   1.000  H
  H32      1.0000 0.66439  0.66962  0.53068  Biso   1.000  H
  H33      1.0000 0.66439  0.66962  0.31172  Biso   1.000  H
  H34      1.0000 0.15847  0.38267  0.81764  Biso   1.000  H
  H35      1.0000 0.37743  0.16370  0.81764  Biso   1.000  H
  H36      1.0000 0.73795  0.28911  0.93120  Biso   1.000  H
  H37      1.0000 0.73795  0.07014  0.93120  Biso   1.000  H
  H38      1.0000 0.02491  0.78318  0.43712  Biso   1.000  H
  H39      1.0000 0.24387  0.78318  0.21816  Biso   1.000  H
  H40      1.0000 0.02491  0.28911  0.93120  Biso   1.000  H
  H41      1.0000 0.24387  0.07014  0.93120  Biso   1.000  H
  H42      1.0000 0.73795  0.78318  0.21816  Biso   1.000  H
  H43      1.0000 0.73795  0.78318  0.43712  Biso   1.000  H
  H44      1.0000 0.73795  0.07014  0.43712  Biso   1.000  H
  H45      1.0000 0.24387  0.78318  0.93120  Biso   1.000  H
  H46      1.0000 0.02491  0.78318  0.93120  Biso   1.000  H
  H47      1.0000 0.73795  0.28911  0.21816  Biso   1.000  H
  H48      1.0000 0.37743  0.66962  0.81764  Biso   1.000  H
