data_image0
_cell_length_a       18.2751
_cell_length_b       18.2751
_cell_length_c       18.2751
_cell_angle_alpha    60
_cell_angle_beta     60
_cell_angle_gamma    60

_symmetry_space_group_name_H-M    "P 1"
_symmetry_int_tables_number       1

loop_
  _symmetry_equiv_pos_as_xyz
  'x, y, z'

loop_
  _atom_site_label
  _atom_site_occupancy
  _atom_site_fract_x
  _atom_site_fract_y
  _atom_site_fract_z
  _atom_site_thermal_displace_type
  _atom_site_B_iso_or_equiv
  _atom_site_type_symbol
  C1       1.0000 0.29350  0.29349  0.11952  Biso   1.000  C
  C2       1.0000 0.29350  0.29349  0.29349  Biso   1.000  C
  C3       1.0000 0.11953  0.29349  0.29349  Biso   1.000  C
  C4       1.0000 0.29350  0.11952  0.29349  Biso   1.000  C
  C5       1.0000 0.70650  0.70651  0.88048  Biso   1.000  C
  C6       1.0000 0.70650  0.70651  0.70651  Biso   1.000  C
  C7       1.0000 0.70650  0.88048  0.70651  Biso   1.000  C
  C8       1.0000 0.88047  0.70651  0.70651  Biso   1.000  C
  C9       1.0000 0.45530  0.45530  0.93570  Biso   1.000  C
  C10      1.0000 0.45530  0.45530  0.15370  Biso   1.000  C
  C11      1.0000 0.93570  0.15370  0.45530  Biso   1.000  C
  C12      1.0000 0.15370  0.93570  0.45530  Biso   1.000  C
  C13      1.0000 0.45530  0.93570  0.15370  Biso   1.000  C
  C14      1.0000 0.45530  0.15370  0.93570  Biso   1.000  C
  C15      1.0000 0.93570  0.45530  0.45530  Biso   1.000  C
  C16      1.0000 0.15370  0.45530  0.45530  Biso   1.000  C
  C17      1.0000 0.45530  0.15370  0.45530  Biso   1.000  C
  C18      1.0000 0.45530  0.93570  0.45530  Biso   1.000  C
  C19      1.0000 0.93570  0.45530  0.15370  Biso   1.000  C
  C20      1.0000 0.15370  0.45530  0.93570  Biso   1.000  C
  C21      1.0000 0.54470  0.54470  0.06430  Biso   1.000  C
  C22      1.0000 0.54470  0.54470  0.84630  Biso   1.000  C
  C23      1.0000 0.84630  0.06430  0.54470  Biso   1.000  C
  C24      1.0000 0.06430  0.84630  0.54470  Biso   1.000  C
  C25      1.0000 0.06430  0.54470  0.84630  Biso   1.000  C
  C26      1.0000 0.84630  0.54470  0.06430  Biso   1.000  C
  C27      1.0000 0.54470  0.06430  0.54470  Biso   1.000  C
  C28      1.0000 0.54470  0.84630  0.54470  Biso   1.000  C
  C29      1.0000 0.84630  0.54470  0.54470  Biso   1.000  C
  C30      1.0000 0.06430  0.54470  0.54470  Biso   1.000  C
  C31      1.0000 0.54470  0.06430  0.84630  Biso   1.000  C
  C32      1.0000 0.54470  0.84630  0.06430  Biso   1.000  C
  C33      1.0000 0.47331  0.47331  0.96231  Biso   1.000  C
  C34      1.0000 0.47331  0.47331  0.09107  Biso   1.000  C
  C35      1.0000 0.96231  0.09107  0.47331  Biso   1.000  C
  C36      1.0000 0.09107  0.96231  0.47331  Biso   1.000  C
  C37      1.0000 0.47331  0.96231  0.09107  Biso   1.000  C
  C38      1.0000 0.47331  0.09107  0.96231  Biso   1.000  C
  C39      1.0000 0.96231  0.47331  0.47331  Biso   1.000  C
  C40      1.0000 0.09107  0.47331  0.47331  Biso   1.000  C
  C41      1.0000 0.47331  0.09107  0.47331  Biso   1.000  C
  C42      1.0000 0.47331  0.96231  0.47331  Biso   1.000  C
  C43      1.0000 0.96231  0.47331  0.09107  Biso   1.000  C
  C44      1.0000 0.09107  0.47331  0.96231  Biso   1.000  C
  C45      1.0000 0.52669  0.52669  0.03769  Biso   1.000  C
  C46      1.0000 0.52669  0.52669  0.90893  Biso   1.000  C
  C47      1.0000 0.90893  0.03769  0.52669  Biso   1.000  C
  C48      1.0000 0.03769  0.90893  0.52669  Biso   1.000  C
  C49      1.0000 0.03769  0.52669  0.90893  Biso   1.000  C
  C50      1.0000 0.90893  0.52669  0.03769  Biso   1.000  C
  C51      1.0000 0.52669  0.03769  0.52669  Biso   1.000  C
  C52      1.0000 0.52669  0.90893  0.52669  Biso   1.000  C
  C53      1.0000 0.90893  0.52669  0.52669  Biso   1.000  C
  C54      1.0000 0.03769  0.52669  0.52669  Biso   1.000  C
  C55      1.0000 0.52669  0.03769  0.90893  Biso   1.000  C
  C56      1.0000 0.52669  0.90893  0.03769  Biso   1.000  C
  C57      1.0000 0.38853  0.38853  0.11147  Biso   1.000  C
  C58      1.0000 0.44625  0.44625  0.05375  Biso   1.000  C
  C59      1.0000 0.11147  0.11147  0.38853  Biso   1.000  C
  C60      1.0000 0.05375  0.05375  0.44625  Biso   1.000  C
  C61      1.0000 0.38853  0.11147  0.11147  Biso   1.000  C
  C62      1.0000 0.44625  0.05375  0.05375  Biso   1.000  C
  C63      1.0000 0.11147  0.38853  0.38853  Biso   1.000  C
  C64      1.0000 0.05375  0.44625  0.44625  Biso   1.000  C
  C65      1.0000 0.38853  0.11147  0.38853  Biso   1.000  C
  C66      1.0000 0.44625  0.05375  0.44625  Biso   1.000  C
  C67      1.0000 0.11147  0.38853  0.11147  Biso   1.000  C
  C68      1.0000 0.05375  0.44625  0.05375  Biso   1.000  C
  C69      1.0000 0.61147  0.61147  0.88853  Biso   1.000  C
  C70      1.0000 0.55375  0.55375  0.94625  Biso   1.000  C
  C71      1.0000 0.88853  0.88853  0.61147  Biso   1.000  C
  C72      1.0000 0.94625  0.94625  0.55375  Biso   1.000  C
  C73      1.0000 0.88853  0.61147  0.88853  Biso   1.000  C
  C74      1.0000 0.94625  0.55375  0.94625  Biso   1.000  C
  C75      1.0000 0.61147  0.88853  0.61147  Biso   1.000  C
  C76      1.0000 0.55375  0.94625  0.55375  Biso   1.000  C
  C77      1.0000 0.88853  0.61147  0.61147  Biso   1.000  C
  C78      1.0000 0.94625  0.55375  0.55375  Biso   1.000  C
  C79      1.0000 0.61147  0.88853  0.88853  Biso   1.000  C
  C80      1.0000 0.55375  0.94625  0.94625  Biso   1.000  C
  C81      1.0000 0.25000  0.25000  0.25000  Biso   1.000  C
  C82      1.0000 0.75000  0.75000  0.75000  Biso   1.000  C
  C83      1.0000 0.36609  0.36609  0.07299  Biso   1.000  C
  C84      1.0000 0.36609  0.36609  0.19483  Biso   1.000  C
  C85      1.0000 0.07299  0.19483  0.36609  Biso   1.000  C
  C86      1.0000 0.19483  0.07299  0.36609  Biso   1.000  C
  C87      1.0000 0.36609  0.07299  0.19483  Biso   1.000  C
  C88      1.0000 0.36609  0.19483  0.07299  Biso   1.000  C
  C89      1.0000 0.07299  0.36609  0.36609  Biso   1.000  C
  C90      1.0000 0.19483  0.36609  0.36609  Biso   1.000  C
  C91      1.0000 0.36609  0.19483  0.36609  Biso   1.000  C
  C92      1.0000 0.36609  0.07299  0.36609  Biso   1.000  C
  C93      1.0000 0.07299  0.36609  0.19483  Biso   1.000  C
  C94      1.0000 0.19483  0.36609  0.07299  Biso   1.000  C
  C95      1.0000 0.63391  0.63391  0.92701  Biso   1.000  C
  C96      1.0000 0.63391  0.63391  0.80517  Biso   1.000  C
  C97      1.0000 0.80517  0.92701  0.63391  Biso   1.000  C
  C98      1.0000 0.92701  0.80517  0.63391  Biso   1.000  C
  C99      1.0000 0.92701  0.63391  0.80517  Biso   1.000  C
  C100     1.0000 0.80517  0.63391  0.92701  Biso   1.000  C
  C101     1.0000 0.63391  0.92701  0.63391  Biso   1.000  C
  C102     1.0000 0.63391  0.80517  0.63391  Biso   1.000  C
  C103     1.0000 0.80517  0.63391  0.63391  Biso   1.000  C
  C104     1.0000 0.92701  0.63391  0.63391  Biso   1.000  C
  C105     1.0000 0.63391  0.92701  0.80517  Biso   1.000  C
  C106     1.0000 0.63391  0.80517  0.92701  Biso   1.000  C
  O1       1.0000 0.50645  0.51167  0.66408  Biso   1.000  O
  O2       1.0000 0.50645  0.34090  0.66408  Biso   1.000  O
  O3       1.0000 0.50645  0.51167  0.49330  Biso   1.000  O
  O4       1.0000 0.33568  0.51167  0.66408  Biso   1.000  O
  O5       1.0000 0.88352  0.10958  0.09121  Biso   1.000  O
  O6       1.0000 0.88352  0.93880  0.09121  Biso   1.000  O
  O7       1.0000 0.88352  0.93880  0.26198  Biso   1.000  O
  O8       1.0000 0.05429  0.93880  0.09121  Biso   1.000  O
  O9       1.0000 0.68274  0.30558  0.84036  Biso   1.000  O
  O10      1.0000 0.68274  0.19443  0.84036  Biso   1.000  O
  O11      1.0000 0.30036  0.68796  0.34683  Biso   1.000  O
  O12      1.0000 0.18921  0.68796  0.45798  Biso   1.000  O
  O13      1.0000 0.30036  0.68796  0.84036  Biso   1.000  O
  O14      1.0000 0.18921  0.68796  0.84036  Biso   1.000  O
  O15      1.0000 0.68274  0.19443  0.45798  Biso   1.000  O
  O16      1.0000 0.68274  0.30558  0.34683  Biso   1.000  O
  O17      1.0000 0.68274  0.68796  0.45798  Biso   1.000  O
  O18      1.0000 0.68274  0.68796  0.34683  Biso   1.000  O
  O19      1.0000 0.18921  0.30558  0.84036  Biso   1.000  O
  O20      1.0000 0.30036  0.19443  0.84036  Biso   1.000  O
  O21      1.0000 0.70723  0.25605  0.91492  Biso   1.000  O
  O22      1.0000 0.70723  0.14490  0.91492  Biso   1.000  O
  O23      1.0000 0.08961  0.76252  0.40845  Biso   1.000  O
  O24      1.0000 0.20076  0.76252  0.29730  Biso   1.000  O
  O25      1.0000 0.08961  0.25605  0.91492  Biso   1.000  O
  O26      1.0000 0.20076  0.14490  0.91492  Biso   1.000  O
  O27      1.0000 0.70723  0.76252  0.29730  Biso   1.000  O
  O28      1.0000 0.70723  0.76252  0.40845  Biso   1.000  O
  O29      1.0000 0.70723  0.25605  0.29730  Biso   1.000  O
  O30      1.0000 0.70723  0.14490  0.40845  Biso   1.000  O
  O31      1.0000 0.20076  0.76252  0.91492  Biso   1.000  O
  O32      1.0000 0.08961  0.76252  0.91492  Biso   1.000  O
  O33      1.0000 0.65446  0.27828  0.81209  Biso   1.000  O
  O34      1.0000 0.59996  0.33278  0.75759  Biso   1.000  O
  O35      1.0000 0.27306  0.65968  0.43068  Biso   1.000  O
  O36      1.0000 0.32756  0.60518  0.48518  Biso   1.000  O
  O37      1.0000 0.27306  0.65968  0.81209  Biso   1.000  O
  O38      1.0000 0.32756  0.60518  0.75759  Biso   1.000  O
  O39      1.0000 0.65446  0.27828  0.43068  Biso   1.000  O
  O40      1.0000 0.59996  0.33278  0.48518  Biso   1.000  O
  O41      1.0000 0.65446  0.65968  0.43068  Biso   1.000  O
  O42      1.0000 0.59996  0.60518  0.48518  Biso   1.000  O
  O43      1.0000 0.27306  0.27828  0.81209  Biso   1.000  O
  O44      1.0000 0.32756  0.33278  0.75759  Biso   1.000  O
  O45      1.0000 0.73551  0.17220  0.94320  Biso   1.000  O
  O46      1.0000 0.79001  0.11770  0.99770  Biso   1.000  O
  O47      1.0000 0.11691  0.79079  0.32460  Biso   1.000  O
  O48      1.0000 0.06241  0.84529  0.27010  Biso   1.000  O
  O49      1.0000 0.11691  0.17220  0.94320  Biso   1.000  O
  O50      1.0000 0.06241  0.11770  0.99770  Biso   1.000  O
  O51      1.0000 0.73551  0.79079  0.32460  Biso   1.000  O
  O52      1.0000 0.79001  0.84529  0.27010  Biso   1.000  O
  O53      1.0000 0.73551  0.17220  0.32460  Biso   1.000  O
  O54      1.0000 0.79001  0.11770  0.27010  Biso   1.000  O
  O55      1.0000 0.11691  0.79079  0.94320  Biso   1.000  O
  O56      1.0000 0.06241  0.84529  0.99770  Biso   1.000  O
  O57      1.0000 0.46376  0.46898  0.62138  Biso   1.000  O
  O58      1.0000 0.92621  0.98150  0.13390  Biso   1.000  O
  O59      1.0000 0.57656  0.41448  0.73419  Biso   1.000  O
  O60      1.0000 0.57656  0.29787  0.73419  Biso   1.000  O
  O61      1.0000 0.40926  0.58178  0.45028  Biso   1.000  O
  O62      1.0000 0.29265  0.58178  0.56688  Biso   1.000  O
  O63      1.0000 0.40926  0.58178  0.73419  Biso   1.000  O
  O64      1.0000 0.29265  0.58178  0.73419  Biso   1.000  O
  O65      1.0000 0.57656  0.29787  0.56688  Biso   1.000  O
  O66      1.0000 0.57656  0.41448  0.45028  Biso   1.000  O
  O67      1.0000 0.57656  0.58178  0.56688  Biso   1.000  O
  O68      1.0000 0.57656  0.58178  0.45028  Biso   1.000  O
  O69      1.0000 0.29265  0.41448  0.73419  Biso   1.000  O
  O70      1.0000 0.40926  0.29787  0.73419  Biso   1.000  O
  O71      1.0000 0.81341  0.15260  0.02110  Biso   1.000  O
  O72      1.0000 0.81341  0.03600  0.02110  Biso   1.000  O
  O73      1.0000 0.98071  0.86869  0.30501  Biso   1.000  O
  O74      1.0000 0.09732  0.86869  0.18840  Biso   1.000  O
  O75      1.0000 0.98071  0.15260  0.02110  Biso   1.000  O
  O76      1.0000 0.09732  0.03600  0.02110  Biso   1.000  O
  O77      1.0000 0.81341  0.86869  0.18840  Biso   1.000  O
  O78      1.0000 0.81341  0.86869  0.30501  Biso   1.000  O
  O79      1.0000 0.81341  0.15260  0.18840  Biso   1.000  O
  O80      1.0000 0.81341  0.03600  0.30501  Biso   1.000  O
  O81      1.0000 0.09732  0.86869  0.02110  Biso   1.000  O
  O82      1.0000 0.98071  0.86869  0.02110  Biso   1.000  O
  O83      1.0000 0.66097  0.38070  0.81858  Biso   1.000  O
  O84      1.0000 0.66097  0.16286  0.81858  Biso   1.000  O
  O85      1.0000 0.37549  0.66618  0.31526  Biso   1.000  O
  O86      1.0000 0.15765  0.66618  0.53310  Biso   1.000  O
  O87      1.0000 0.15765  0.66618  0.81858  Biso   1.000  O
  O88      1.0000 0.66097  0.16286  0.53310  Biso   1.000  O
  O89      1.0000 0.66097  0.38070  0.31526  Biso   1.000  O
  O90      1.0000 0.66097  0.66618  0.53310  Biso   1.000  O
  O91      1.0000 0.66097  0.66618  0.31526  Biso   1.000  O
  O92      1.0000 0.15765  0.38070  0.81858  Biso   1.000  O
  O93      1.0000 0.37549  0.16286  0.81858  Biso   1.000  O
  O94      1.0000 0.72900  0.28762  0.93670  Biso   1.000  O
  O95      1.0000 0.72900  0.06978  0.93670  Biso   1.000  O
  O96      1.0000 0.01448  0.78430  0.44002  Biso   1.000  O
  O97      1.0000 0.23232  0.78430  0.22218  Biso   1.000  O
  O98      1.0000 0.01448  0.28762  0.93670  Biso   1.000  O
  O99      1.0000 0.23232  0.06978  0.93670  Biso   1.000  O
  O100     1.0000 0.72900  0.78430  0.22218  Biso   1.000  O
  O101     1.0000 0.72900  0.78430  0.44002  Biso   1.000  O
  O102     1.0000 0.72900  0.06978  0.44002  Biso   1.000  O
  O103     1.0000 0.23232  0.78430  0.93670  Biso   1.000  O
  O104     1.0000 0.01448  0.78430  0.93670  Biso   1.000  O
  O105     1.0000 0.72900  0.28762  0.22218  Biso   1.000  O
  O106     1.0000 0.37549  0.66618  0.81858  Biso   1.000  O
