data_image0
_cell_length_a       18.2507
_cell_length_b       18.2507
_cell_length_c       18.2507
_cell_angle_alpha    60
_cell_angle_beta     60
_cell_angle_gamma    60

_symmetry_space_group_name_H-M    "P 1"
_symmetry_int_tables_number       1

loop_
  _symmetry_equiv_pos_as_xyz
  'x, y, z'

loop_
  _atom_site_label
  _atom_site_occupancy
  _atom_site_fract_x
  _atom_site_fract_y
  _atom_site_fract_z
  _atom_site_thermal_displace_type
  _atom_site_B_iso_or_equiv
  _atom_site_type_symbol
  Zn1      1.0000 0.29354  0.29353  0.11940  Biso   1.000  Zn
  Zn2      1.0000 0.29354  0.29353  0.29353  Biso   1.000  Zn
  Zn3      1.0000 0.11941  0.29353  0.29353  Biso   1.000  Zn
  Zn4      1.0000 0.29354  0.11940  0.29353  Biso   1.000  Zn
  Zn5      1.0000 0.70646  0.70647  0.88060  Biso   1.000  Zn
  Zn6      1.0000 0.70646  0.70647  0.70647  Biso   1.000  Zn
  Zn7      1.0000 0.70646  0.88060  0.70647  Biso   1.000  Zn
  Zn8      1.0000 0.88059  0.70647  0.70647  Biso   1.000  Zn
  H1       1.0000 0.45580  0.45580  0.93620  Biso   1.000  H
  H2       1.0000 0.45580  0.45580  0.15220  Biso   1.000  H
  H3       1.0000 0.93620  0.15220  0.45580  Biso   1.000  H
  H4       1.0000 0.15220  0.93620  0.45580  Biso   1.000  H
  H5       1.0000 0.45580  0.93620  0.15220  Biso   1.000  H
  H6       1.0000 0.45580  0.15220  0.93620  Biso   1.000  H
  H7       1.0000 0.93620  0.45580  0.45580  Biso   1.000  H
  H8       1.0000 0.15220  0.45580  0.45580  Biso   1.000  H
  H9       1.0000 0.45580  0.15220  0.45580  Biso   1.000  H
  H10      1.0000 0.45580  0.93620  0.45580  Biso   1.000  H
  H11      1.0000 0.93620  0.45580  0.15220  Biso   1.000  H
  H12      1.0000 0.15220  0.45580  0.93620  Biso   1.000  H
  H13      1.0000 0.54420  0.54420  0.06380  Biso   1.000  H
  H14      1.0000 0.54420  0.54420  0.84780  Biso   1.000  H
  H15      1.0000 0.84780  0.06380  0.54420  Biso   1.000  H
  H16      1.0000 0.06380  0.84780  0.54420  Biso   1.000  H
  H17      1.0000 0.06380  0.54420  0.84780  Biso   1.000  H
  H18      1.0000 0.84780  0.54420  0.06380  Biso   1.000  H
  H19      1.0000 0.54420  0.06380  0.54420  Biso   1.000  H
  H20      1.0000 0.54420  0.84780  0.54420  Biso   1.000  H
  H21      1.0000 0.84780  0.54420  0.54420  Biso   1.000  H
  H22      1.0000 0.06380  0.54420  0.54420  Biso   1.000  H
  H23      1.0000 0.54420  0.06380  0.84780  Biso   1.000  H
  H24      1.0000 0.54420  0.84780  0.06380  Biso   1.000  H
  C1       1.0000 0.47349  0.47349  0.96297  Biso   1.000  C
  C2       1.0000 0.47349  0.47349  0.09005  Biso   1.000  C
  C3       1.0000 0.96297  0.09005  0.47349  Biso   1.000  C
  C4       1.0000 0.09005  0.96297  0.47349  Biso   1.000  C
  C5       1.0000 0.47349  0.96297  0.09005  Biso   1.000  C
  C6       1.0000 0.47349  0.09005  0.96297  Biso   1.000  C
  C7       1.0000 0.96297  0.47349  0.47349  Biso   1.000  C
  C8       1.0000 0.09005  0.47349  0.47349  Biso   1.000  C
  C9       1.0000 0.47349  0.09005  0.47349  Biso   1.000  C
  C10      1.0000 0.47349  0.96297  0.47349  Biso   1.000  C
  C11      1.0000 0.96297  0.47349  0.09005  Biso   1.000  C
  C12      1.0000 0.09005  0.47349  0.96297  Biso   1.000  C
  C13      1.0000 0.52651  0.52651  0.03703  Biso   1.000  C
  C14      1.0000 0.52651  0.52651  0.90995  Biso   1.000  C
  C15      1.0000 0.90995  0.03703  0.52651  Biso   1.000  C
  C16      1.0000 0.03703  0.90995  0.52651  Biso   1.000  C
  C17      1.0000 0.03703  0.52651  0.90995  Biso   1.000  C
  C18      1.0000 0.90995  0.52651  0.03703  Biso   1.000  C
  C19      1.0000 0.52651  0.03703  0.52651  Biso   1.000  C
  C20      1.0000 0.52651  0.90995  0.52651  Biso   1.000  C
  C21      1.0000 0.90995  0.52651  0.52651  Biso   1.000  C
  C22      1.0000 0.03703  0.52651  0.52651  Biso   1.000  C
  C23      1.0000 0.52651  0.03703  0.90995  Biso   1.000  C
  C24      1.0000 0.52651  0.90995  0.03703  Biso   1.000  C
  C25      1.0000 0.38859  0.38859  0.11141  Biso   1.000  C
  C26      1.0000 0.44630  0.44630  0.05370  Biso   1.000  C
  C27      1.0000 0.11141  0.11141  0.38859  Biso   1.000  C
  C28      1.0000 0.05370  0.05370  0.44630  Biso   1.000  C
  C29      1.0000 0.38859  0.11141  0.11141  Biso   1.000  C
  C30      1.0000 0.44630  0.05370  0.05370  Biso   1.000  C
  C31      1.0000 0.11141  0.38859  0.38859  Biso   1.000  C
  C32      1.0000 0.05370  0.44630  0.44630  Biso   1.000  C
  C33      1.0000 0.38859  0.11141  0.38859  Biso   1.000  C
  C34      1.0000 0.44630  0.05370  0.44630  Biso   1.000  C
  C35      1.0000 0.11141  0.38859  0.11141  Biso   1.000  C
  C36      1.0000 0.05370  0.44630  0.05370  Biso   1.000  C
  C37      1.0000 0.61141  0.61141  0.88859  Biso   1.000  C
  C38      1.0000 0.55370  0.55370  0.94630  Biso   1.000  C
  C39      1.0000 0.88859  0.88859  0.61141  Biso   1.000  C
  C40      1.0000 0.94630  0.94630  0.55370  Biso   1.000  C
  C41      1.0000 0.88859  0.61141  0.88859  Biso   1.000  C
  C42      1.0000 0.94630  0.55370  0.94630  Biso   1.000  C
  C43      1.0000 0.61141  0.88859  0.61141  Biso   1.000  C
  C44      1.0000 0.55370  0.94630  0.55370  Biso   1.000  C
  C45      1.0000 0.88859  0.61141  0.61141  Biso   1.000  C
  C46      1.0000 0.94630  0.55370  0.55370  Biso   1.000  C
  C47      1.0000 0.61141  0.88859  0.88859  Biso   1.000  C
  C48      1.0000 0.55370  0.94630  0.94630  Biso   1.000  C
  O1       1.0000 0.25000  0.25000  0.25000  Biso   1.000  O
  O2       1.0000 0.75000  0.75000  0.75000  Biso   1.000  O
  O3       1.0000 0.36605  0.36605  0.07321  Biso   1.000  O
  O4       1.0000 0.36605  0.36605  0.19469  Biso   1.000  O
  O5       1.0000 0.07321  0.19469  0.36605  Biso   1.000  O
  O6       1.0000 0.19469  0.07321  0.36605  Biso   1.000  O
  O7       1.0000 0.36605  0.07321  0.19469  Biso   1.000  O
  O8       1.0000 0.36605  0.19469  0.07321  Biso   1.000  O
  O9       1.0000 0.07321  0.36605  0.36605  Biso   1.000  O
  O10      1.0000 0.19469  0.36605  0.36605  Biso   1.000  O
  O11      1.0000 0.36605  0.19469  0.36605  Biso   1.000  O
  O12      1.0000 0.36605  0.07321  0.36605  Biso   1.000  O
  O13      1.0000 0.07321  0.36605  0.19469  Biso   1.000  O
  O14      1.0000 0.19469  0.36605  0.07321  Biso   1.000  O
  O15      1.0000 0.63395  0.63395  0.92679  Biso   1.000  O
  O16      1.0000 0.63395  0.63395  0.80531  Biso   1.000  O
  O17      1.0000 0.80531  0.92679  0.63395  Biso   1.000  O
  O18      1.0000 0.92679  0.80531  0.63395  Biso   1.000  O
  O19      1.0000 0.92679  0.63395  0.80531  Biso   1.000  O
  O20      1.0000 0.80531  0.63395  0.92679  Biso   1.000  O
  O21      1.0000 0.63395  0.92679  0.63395  Biso   1.000  O
  O22      1.0000 0.63395  0.80531  0.63395  Biso   1.000  O
  O23      1.0000 0.80531  0.63395  0.63395  Biso   1.000  O
  O24      1.0000 0.92679  0.63395  0.63395  Biso   1.000  O
  O25      1.0000 0.63395  0.92679  0.80531  Biso   1.000  O
  O26      1.0000 0.63395  0.80531  0.92679  Biso   1.000  O
  Zn9      1.0000 0.50781  0.51304  0.66318  Biso   1.000  Zn
  Zn10     1.0000 0.50781  0.34181  0.66318  Biso   1.000  Zn
  Zn11     1.0000 0.50781  0.51304  0.49195  Biso   1.000  Zn
  Zn12     1.0000 0.33658  0.51304  0.66318  Biso   1.000  Zn
  Zn13     1.0000 0.88856  0.10987  0.08878  Biso   1.000  Zn
  Zn14     1.0000 0.88856  0.93864  0.08878  Biso   1.000  Zn
  Zn15     1.0000 0.88856  0.93864  0.26001  Biso   1.000  Zn
  Zn16     1.0000 0.05979  0.93864  0.08878  Biso   1.000  Zn
  C49      1.0000 0.68456  0.30639  0.83993  Biso   1.000  C
  C50      1.0000 0.68456  0.19495  0.83993  Biso   1.000  C
  C51      1.0000 0.30116  0.68980  0.34509  Biso   1.000  C
  C52      1.0000 0.18972  0.68980  0.45653  Biso   1.000  C
  C53      1.0000 0.30116  0.68980  0.83993  Biso   1.000  C
  C54      1.0000 0.18972  0.68980  0.83993  Biso   1.000  C
  C55      1.0000 0.68456  0.19495  0.45653  Biso   1.000  C
  C56      1.0000 0.68456  0.30639  0.34509  Biso   1.000  C
  C57      1.0000 0.68456  0.68980  0.45653  Biso   1.000  C
  C58      1.0000 0.68456  0.68980  0.34509  Biso   1.000  C
  C59      1.0000 0.18972  0.30639  0.83993  Biso   1.000  C
  C60      1.0000 0.30116  0.19495  0.83993  Biso   1.000  C
  C61      1.0000 0.71180  0.25673  0.91202  Biso   1.000  C
  C62      1.0000 0.71180  0.14529  0.91202  Biso   1.000  C
  C63      1.0000 0.09520  0.76188  0.40687  Biso   1.000  C
  C64      1.0000 0.20665  0.76188  0.29542  Biso   1.000  C
  C65      1.0000 0.09520  0.25673  0.91202  Biso   1.000  C
  C66      1.0000 0.20665  0.14529  0.91202  Biso   1.000  C
  C67      1.0000 0.71180  0.76188  0.29542  Biso   1.000  C
  C68      1.0000 0.71180  0.76188  0.40687  Biso   1.000  C
  C69      1.0000 0.71180  0.25673  0.29542  Biso   1.000  C
  C70      1.0000 0.71180  0.14529  0.40687  Biso   1.000  C
  C71      1.0000 0.20665  0.76188  0.91202  Biso   1.000  C
  C72      1.0000 0.09520  0.76188  0.91202  Biso   1.000  C
  C73      1.0000 0.65622  0.27902  0.81158  Biso   1.000  C
  C74      1.0000 0.60157  0.33367  0.75694  Biso   1.000  C
  C75      1.0000 0.27379  0.66145  0.42916  Biso   1.000  C
  C76      1.0000 0.32843  0.60680  0.48380  Biso   1.000  C
  C77      1.0000 0.27379  0.66145  0.81158  Biso   1.000  C
  C78      1.0000 0.32843  0.60680  0.75694  Biso   1.000  C
  C79      1.0000 0.65621  0.27902  0.42916  Biso   1.000  C
  C80      1.0000 0.60157  0.33367  0.48380  Biso   1.000  C
  C81      1.0000 0.65622  0.66145  0.42916  Biso   1.000  C
  C82      1.0000 0.60157  0.60680  0.48380  Biso   1.000  C
  C83      1.0000 0.27379  0.27902  0.81158  Biso   1.000  C
  C84      1.0000 0.32843  0.33367  0.75694  Biso   1.000  C
  C85      1.0000 0.74015  0.17266  0.94037  Biso   1.000  C
  C86      1.0000 0.79480  0.11801  0.99502  Biso   1.000  C
  C87      1.0000 0.12258  0.79023  0.32280  Biso   1.000  C
  C88      1.0000 0.06793  0.84488  0.26815  Biso   1.000  C
  C89      1.0000 0.12258  0.17266  0.94037  Biso   1.000  C
  C90      1.0000 0.06793  0.11801  0.99502  Biso   1.000  C
  C91      1.0000 0.74015  0.79023  0.32280  Biso   1.000  C
  C92      1.0000 0.79480  0.84488  0.26815  Biso   1.000  C
  C93      1.0000 0.74015  0.17266  0.32280  Biso   1.000  C
  C94      1.0000 0.79480  0.11801  0.26815  Biso   1.000  C
  C95      1.0000 0.12258  0.79023  0.94037  Biso   1.000  C
  C96      1.0000 0.06793  0.84488  0.99502  Biso   1.000  C
  O27      1.0000 0.46500  0.47023  0.62037  Biso   1.000  O
  O28      1.0000 0.93136  0.98145  0.13158  Biso   1.000  O
  O29      1.0000 0.57811  0.41559  0.73348  Biso   1.000  O
  O30      1.0000 0.57811  0.29867  0.73348  Biso   1.000  O
  O31      1.0000 0.41035  0.58334  0.44881  Biso   1.000  O
  O32      1.0000 0.29344  0.58334  0.56572  Biso   1.000  O
  O33      1.0000 0.41035  0.58334  0.73348  Biso   1.000  O
  O34      1.0000 0.29344  0.58334  0.73348  Biso   1.000  O
  O35      1.0000 0.57811  0.29867  0.56572  Biso   1.000  O
  O36      1.0000 0.57811  0.41559  0.44881  Biso   1.000  O
  O37      1.0000 0.57811  0.58334  0.56572  Biso   1.000  O
  O38      1.0000 0.57811  0.58334  0.44881  Biso   1.000  O
  O39      1.0000 0.29344  0.41559  0.73348  Biso   1.000  O
  O40      1.0000 0.41035  0.29867  0.73348  Biso   1.000  O
  O41      1.0000 0.81826  0.15301  0.01848  Biso   1.000  O
  O42      1.0000 0.81826  0.03609  0.01848  Biso   1.000  O
  O43      1.0000 0.98601  0.86834  0.30315  Biso   1.000  O
  O44      1.0000 0.10293  0.86834  0.18623  Biso   1.000  O
  O45      1.0000 0.98601  0.15301  0.01848  Biso   1.000  O
  O46      1.0000 0.10293  0.03609  0.01848  Biso   1.000  O
  O47      1.0000 0.81826  0.86834  0.18623  Biso   1.000  O
  O48      1.0000 0.81826  0.86834  0.30315  Biso   1.000  O
  O49      1.0000 0.81826  0.15301  0.18623  Biso   1.000  O
  O50      1.0000 0.81826  0.03609  0.30315  Biso   1.000  O
  O51      1.0000 0.10293  0.86834  0.01848  Biso   1.000  O
  O52      1.0000 0.98601  0.86834  0.01848  Biso   1.000  O
  H25      1.0000 0.66274  0.38172  0.81809  Biso   1.000  H
  H26      1.0000 0.66274  0.16330  0.81809  Biso   1.000  H
  H27      1.0000 0.37649  0.66796  0.31343  Biso   1.000  H
  H28      1.0000 0.15807  0.66796  0.53185  Biso   1.000  H
  H29      1.0000 0.15807  0.66796  0.81809  Biso   1.000  H
  H30      1.0000 0.66274  0.16330  0.53185  Biso   1.000  H
  H31      1.0000 0.66274  0.38172  0.31343  Biso   1.000  H
  H32      1.0000 0.66274  0.66796  0.53185  Biso   1.000  H
  H33      1.0000 0.66274  0.66796  0.31343  Biso   1.000  H
  H34      1.0000 0.15807  0.38172  0.81809  Biso   1.000  H
  H35      1.0000 0.37649  0.16330  0.81809  Biso   1.000  H
  H36      1.0000 0.73363  0.28839  0.93386  Biso   1.000  H
  H37      1.0000 0.73363  0.06997  0.93386  Biso   1.000  H
  H38      1.0000 0.01987  0.78372  0.43852  Biso   1.000  H
  H39      1.0000 0.23829  0.78372  0.22010  Biso   1.000  H
  H40      1.0000 0.01987  0.28839  0.93386  Biso   1.000  H
  H41      1.0000 0.23829  0.06997  0.93386  Biso   1.000  H
  H42      1.0000 0.73363  0.78372  0.22010  Biso   1.000  H
  H43      1.0000 0.73363  0.78372  0.43852  Biso   1.000  H
  H44      1.0000 0.73363  0.06997  0.43852  Biso   1.000  H
  H45      1.0000 0.23829  0.78372  0.93386  Biso   1.000  H
  H46      1.0000 0.01987  0.78372  0.93386  Biso   1.000  H
  H47      1.0000 0.73363  0.28839  0.22010  Biso   1.000  H
  H48      1.0000 0.37649  0.66796  0.81809  Biso   1.000  H
