data_image0
_cell_length_a       18.2888
_cell_length_b       18.2888
_cell_length_c       18.2888
_cell_angle_alpha    60
_cell_angle_beta     60
_cell_angle_gamma    60

_symmetry_space_group_name_H-M    "P 1"
_symmetry_int_tables_number       1

loop_
  _symmetry_equiv_pos_as_xyz
  'x, y, z'

loop_
  _atom_site_label
  _atom_site_occupancy
  _atom_site_fract_x
  _atom_site_fract_y
  _atom_site_fract_z
  _atom_site_thermal_displace_type
  _atom_site_B_iso_or_equiv
  _atom_site_type_symbol
  Zn1      1.0000 0.29344  0.29345  0.11966  Biso   1.000  Zn
  Zn2      1.0000 0.29344  0.29345  0.29345  Biso   1.000  Zn
  Zn3      1.0000 0.11965  0.29345  0.29345  Biso   1.000  Zn
  Zn4      1.0000 0.29344  0.11966  0.29345  Biso   1.000  Zn
  Zn5      1.0000 0.70655  0.70656  0.88034  Biso   1.000  Zn
  Zn6      1.0000 0.70656  0.70655  0.70655  Biso   1.000  Zn
  Zn7      1.0000 0.70655  0.88034  0.70656  Biso   1.000  Zn
  Zn8      1.0000 0.88035  0.70655  0.70655  Biso   1.000  Zn
  H1       1.0000 0.45490  0.45490  0.93490  Biso   1.000  H
  H2       1.0000 0.45490  0.45490  0.15530  Biso   1.000  H
  H3       1.0000 0.93490  0.15530  0.45490  Biso   1.000  H
  H4       1.0000 0.15530  0.93490  0.45490  Biso   1.000  H
  H5       1.0000 0.45490  0.93490  0.15530  Biso   1.000  H
  H6       1.0000 0.45490  0.15530  0.93490  Biso   1.000  H
  H7       1.0000 0.93490  0.45490  0.45490  Biso   1.000  H
  H8       1.0000 0.15530  0.45490  0.45490  Biso   1.000  H
  H9       1.0000 0.45490  0.15530  0.45490  Biso   1.000  H
  H10      1.0000 0.45490  0.93490  0.45490  Biso   1.000  H
  H11      1.0000 0.93490  0.45490  0.15530  Biso   1.000  H
  H12      1.0000 0.15530  0.45490  0.93490  Biso   1.000  H
  H13      1.0000 0.54510  0.54510  0.06510  Biso   1.000  H
  H14      1.0000 0.54510  0.54510  0.84470  Biso   1.000  H
  H15      1.0000 0.84470  0.06510  0.54510  Biso   1.000  H
  H16      1.0000 0.06510  0.84470  0.54510  Biso   1.000  H
  H17      1.0000 0.06510  0.54510  0.84470  Biso   1.000  H
  H18      1.0000 0.84470  0.54510  0.06510  Biso   1.000  H
  H19      1.0000 0.54510  0.06510  0.54510  Biso   1.000  H
  H20      1.0000 0.54510  0.84470  0.54510  Biso   1.000  H
  H21      1.0000 0.84470  0.54510  0.54510  Biso   1.000  H
  H22      1.0000 0.06510  0.54510  0.54510  Biso   1.000  H
  H23      1.0000 0.54510  0.06510  0.84470  Biso   1.000  H
  H24      1.0000 0.54510  0.84470  0.06510  Biso   1.000  H
  C1       1.0000 0.47314  0.47314  0.96174  Biso   1.000  C
  C2       1.0000 0.47314  0.47314  0.09198  Biso   1.000  C
  C3       1.0000 0.96174  0.09198  0.47314  Biso   1.000  C
  C4       1.0000 0.09198  0.96174  0.47314  Biso   1.000  C
  C5       1.0000 0.47314  0.96174  0.09198  Biso   1.000  C
  C6       1.0000 0.47314  0.09198  0.96174  Biso   1.000  C
  C7       1.0000 0.96174  0.47314  0.47314  Biso   1.000  C
  C8       1.0000 0.09198  0.47314  0.47314  Biso   1.000  C
  C9       1.0000 0.47314  0.09198  0.47314  Biso   1.000  C
  C10      1.0000 0.47314  0.96174  0.47314  Biso   1.000  C
  C11      1.0000 0.96174  0.47314  0.09198  Biso   1.000  C
  C12      1.0000 0.09198  0.47314  0.96174  Biso   1.000  C
  C13      1.0000 0.52686  0.52686  0.03826  Biso   1.000  C
  C14      1.0000 0.52686  0.52686  0.90802  Biso   1.000  C
  C15      1.0000 0.90802  0.03826  0.52686  Biso   1.000  C
  C16      1.0000 0.03826  0.90802  0.52686  Biso   1.000  C
  C17      1.0000 0.03826  0.52686  0.90802  Biso   1.000  C
  C18      1.0000 0.90802  0.52686  0.03826  Biso   1.000  C
  C19      1.0000 0.52686  0.03826  0.52686  Biso   1.000  C
  C20      1.0000 0.52686  0.90802  0.52686  Biso   1.000  C
  C21      1.0000 0.90802  0.52686  0.52686  Biso   1.000  C
  C22      1.0000 0.03826  0.52686  0.52686  Biso   1.000  C
  C23      1.0000 0.52686  0.03826  0.90802  Biso   1.000  C
  C24      1.0000 0.52686  0.90802  0.03826  Biso   1.000  C
  C25      1.0000 0.38849  0.38849  0.11151  Biso   1.000  C
  C26      1.0000 0.44624  0.44624  0.05376  Biso   1.000  C
  C27      1.0000 0.11151  0.11151  0.38849  Biso   1.000  C
  C28      1.0000 0.05376  0.05376  0.44624  Biso   1.000  C
  C29      1.0000 0.38849  0.11151  0.11151  Biso   1.000  C
  C30      1.0000 0.44624  0.05376  0.05376  Biso   1.000  C
  C31      1.0000 0.11151  0.38849  0.38849  Biso   1.000  C
  C32      1.0000 0.05376  0.44624  0.44624  Biso   1.000  C
  C33      1.0000 0.38849  0.11151  0.38849  Biso   1.000  C
  C34      1.0000 0.44624  0.05376  0.44624  Biso   1.000  C
  C35      1.0000 0.11151  0.38849  0.11151  Biso   1.000  C
  C36      1.0000 0.05376  0.44624  0.05376  Biso   1.000  C
  C37      1.0000 0.61151  0.61151  0.88849  Biso   1.000  C
  C38      1.0000 0.55376  0.55376  0.94624  Biso   1.000  C
  C39      1.0000 0.88849  0.88849  0.61151  Biso   1.000  C
  C40      1.0000 0.94624  0.94624  0.55376  Biso   1.000  C
  C41      1.0000 0.88849  0.61151  0.88849  Biso   1.000  C
  C42      1.0000 0.94624  0.55376  0.94624  Biso   1.000  C
  C43      1.0000 0.61151  0.88849  0.61151  Biso   1.000  C
  C44      1.0000 0.55376  0.94624  0.55376  Biso   1.000  C
  C45      1.0000 0.88849  0.61151  0.61151  Biso   1.000  C
  C46      1.0000 0.94624  0.55376  0.55376  Biso   1.000  C
  C47      1.0000 0.61151  0.88849  0.88849  Biso   1.000  C
  C48      1.0000 0.55376  0.94624  0.94624  Biso   1.000  C
  O1       1.0000 0.25000  0.25000  0.25000  Biso   1.000  O
  O2       1.0000 0.75000  0.75000  0.75000  Biso   1.000  O
  O3       1.0000 0.36620  0.36620  0.07286  Biso   1.000  O
  O4       1.0000 0.36620  0.36620  0.19474  Biso   1.000  O
  O5       1.0000 0.07286  0.19474  0.36620  Biso   1.000  O
  O6       1.0000 0.19474  0.07286  0.36620  Biso   1.000  O
  O7       1.0000 0.36620  0.07286  0.19474  Biso   1.000  O
  O8       1.0000 0.36620  0.19474  0.07286  Biso   1.000  O
  O9       1.0000 0.07286  0.36620  0.36620  Biso   1.000  O
  O10      1.0000 0.19474  0.36620  0.36620  Biso   1.000  O
  O11      1.0000 0.36620  0.19474  0.36620  Biso   1.000  O
  O12      1.0000 0.36620  0.07286  0.36620  Biso   1.000  O
  O13      1.0000 0.07286  0.36620  0.19474  Biso   1.000  O
  O14      1.0000 0.19474  0.36620  0.07286  Biso   1.000  O
  O15      1.0000 0.63380  0.63380  0.92714  Biso   1.000  O
  O16      1.0000 0.63380  0.63380  0.80526  Biso   1.000  O
  O17      1.0000 0.80526  0.92714  0.63380  Biso   1.000  O
  O18      1.0000 0.92714  0.80526  0.63380  Biso   1.000  O
  O19      1.0000 0.92714  0.63380  0.80526  Biso   1.000  O
  O20      1.0000 0.80526  0.63380  0.92714  Biso   1.000  O
  O21      1.0000 0.63380  0.92714  0.63380  Biso   1.000  O
  O22      1.0000 0.63380  0.80526  0.63380  Biso   1.000  O
  O23      1.0000 0.80526  0.63380  0.63380  Biso   1.000  O
  O24      1.0000 0.92714  0.63380  0.63380  Biso   1.000  O
  O25      1.0000 0.63380  0.92714  0.80526  Biso   1.000  O
  O26      1.0000 0.63380  0.80526  0.92714  Biso   1.000  O
  Zn9      1.0000 0.00545  0.83091  0.13260  Biso   1.000  Zn
  Zn10     1.0000 0.83474  0.00161  0.13260  Biso   1.000  Zn
  Zn11     1.0000 0.43001  0.42618  0.72787  Biso   1.000  Zn
  Zn12     1.0000 0.00545  0.00161  0.13260  Biso   1.000  Zn
  Zn13     1.0000 0.43001  0.59688  0.55716  Biso   1.000  Zn
  Zn14     1.0000 0.43001  0.42618  0.55716  Biso   1.000  Zn
  Zn15     1.0000 0.60072  0.42618  0.55716  Biso   1.000  Zn
  Zn16     1.0000 0.00545  0.00161  0.96189  Biso   1.000  Zn
  C49      1.0000 0.63236  0.75006  0.37940  Biso   1.000  C
  C50      1.0000 0.18321  0.67773  0.31036  Biso   1.000  C
  C51      1.0000 0.75390  0.24842  0.37940  Biso   1.000  C
  C52      1.0000 0.15498  0.76673  0.89771  Biso   1.000  C
  C53      1.0000 0.63236  0.24842  0.88105  Biso   1.000  C
  C54      1.0000 0.77056  0.76673  0.28213  Biso   1.000  C
  C55      1.0000 0.60726  0.60343  0.46526  Biso   1.000  C
  C56      1.0000 0.68156  0.79927  0.31036  Biso   1.000  C
  C57      1.0000 0.80310  0.67773  0.31036  Biso   1.000  C
  C58      1.0000 0.15498  0.15115  0.89771  Biso   1.000  C
  C59      1.0000 0.15498  0.76673  0.28213  Biso   1.000  C
  C60      1.0000 0.25225  0.75006  0.75951  Biso   1.000  C
  C61      1.0000 0.25225  0.62852  0.37940  Biso   1.000  C
  C62      1.0000 0.09735  0.82436  0.22450  Biso   1.000  C
  C63      1.0000 0.82819  0.09351  0.95535  Biso   1.000  C
  C64      1.0000 0.60726  0.33428  0.46526  Biso   1.000  C
  C65      1.0000 0.82819  0.09351  0.22450  Biso   1.000  C
  C66      1.0000 0.82819  0.82436  0.22450  Biso   1.000  C
  C67      1.0000 0.75390  0.62852  0.37940  Biso   1.000  C
  C68      1.0000 0.80310  0.17938  0.31036  Biso   1.000  C
  C69      1.0000 0.33811  0.60343  0.46526  Biso   1.000  C
  C70      1.0000 0.68156  0.17938  0.31036  Biso   1.000  C
  C71      1.0000 0.25225  0.62852  0.88105  Biso   1.000  C
  C72      1.0000 0.09735  0.09351  0.95535  Biso   1.000  C
  C73      1.0000 0.68156  0.17938  0.93025  Biso   1.000  C
  C74      1.0000 0.60726  0.33428  0.73442  Biso   1.000  C
  C75      1.0000 0.28048  0.66107  0.40763  Biso   1.000  C
  C76      1.0000 0.63236  0.24842  0.37940  Biso   1.000  C
  C77      1.0000 0.18321  0.17938  0.80871  Biso   1.000  C
  C78      1.0000 0.09735  0.82436  0.95535  Biso   1.000  C
  C79      1.0000 0.75390  0.24842  0.75951  Biso   1.000  C
  C80      1.0000 0.18321  0.17938  0.93025  Biso   1.000  C
  C81      1.0000 0.66490  0.27665  0.79205  Biso   1.000  C
  C82      1.0000 0.25225  0.75006  0.37940  Biso   1.000  C
  C83      1.0000 0.25225  0.24842  0.75951  Biso   1.000  C
  C84      1.0000 0.33811  0.60343  0.73442  Biso   1.000  C
  C85      1.0000 0.25225  0.24842  0.88105  Biso   1.000  C
  C86      1.0000 0.18321  0.67773  0.93025  Biso   1.000  C
  C87      1.0000 0.18321  0.79927  0.80871  Biso   1.000  C
  C88      1.0000 0.77056  0.15115  0.28213  Biso   1.000  C
  C89      1.0000 0.18321  0.79927  0.31036  Biso   1.000  C
  C90      1.0000 0.66490  0.27665  0.40763  Biso   1.000  C
  C91      1.0000 0.28048  0.66107  0.79205  Biso   1.000  C
  C92      1.0000 0.33811  0.33428  0.73442  Biso   1.000  C
  C93      1.0000 0.28048  0.27665  0.79205  Biso   1.000  C
  C94      1.0000 0.77056  0.15115  0.89771  Biso   1.000  C
  C95      1.0000 0.80310  0.17938  0.80871  Biso   1.000  C
  C96      1.0000 0.66490  0.66107  0.40763  Biso   1.000  C
  O27      1.0000 0.35860  0.64507  0.48575  Biso   1.000  O
  O28      1.0000 0.35860  0.64507  0.65181  Biso   1.000  O
  O29      1.0000 0.07686  0.78272  0.20401  Biso   1.000  O
  O30      1.0000 0.52466  0.35476  0.77605  Biso   1.000  O
  O31      1.0000 0.35860  0.35476  0.77605  Biso   1.000  O
  O32      1.0000 0.07686  0.78272  0.03795  Biso   1.000  O
  O33      1.0000 0.91080  0.07303  0.91371  Biso   1.000  O
  O34      1.0000 0.07686  0.07303  0.91371  Biso   1.000  O
  O35      1.0000 0.35860  0.52082  0.48575  Biso   1.000  O
  O36      1.0000 0.64890  0.52082  0.48575  Biso   1.000  O
  O37      1.0000 0.07686  0.90697  0.20401  Biso   1.000  O
  O38      1.0000 0.35860  0.35476  0.65181  Biso   1.000  O
  O39      1.0000 0.91080  0.07303  0.20401  Biso   1.000  O
  O40      1.0000 0.78656  0.90697  0.20401  Biso   1.000  O
  O41      1.0000 0.78656  0.07303  0.20401  Biso   1.000  O
  O42      1.0000 0.35860  0.52082  0.77605  Biso   1.000  O
  O43      1.0000 0.47269  0.46886  0.59984  Biso   1.000  O
  O44      1.0000 0.52466  0.64507  0.48575  Biso   1.000  O
  O45      1.0000 0.91080  0.78272  0.20401  Biso   1.000  O
  O46      1.0000 0.78656  0.07303  0.03795  Biso   1.000  O
  O47      1.0000 0.64890  0.35476  0.48575  Biso   1.000  O
  O48      1.0000 0.07686  0.07303  0.03795  Biso   1.000  O
  O49      1.0000 0.96277  0.95894  0.08992  Biso   1.000  O
  O50      1.0000 0.52466  0.35476  0.48575  Biso   1.000  O
  O51      1.0000 0.07686  0.90697  0.91371  Biso   1.000  O
  O52      1.0000 0.64890  0.35476  0.65181  Biso   1.000  O
  H25      1.0000 0.55709  0.78169  0.40122  Biso   1.000  H
  H26      1.0000 0.16360  0.64220  0.29076  Biso   1.000  H
  H27      1.0000 0.78553  0.27023  0.40122  Biso   1.000  H
  H28      1.0000 0.55709  0.27023  0.91268  Biso   1.000  H
  H29      1.0000 0.64993  0.87454  0.28854  Biso   1.000  H
  H30      1.0000 0.87784  0.64220  0.29076  Biso   1.000  H
  H31      1.0000 0.27407  0.78169  0.68424  Biso   1.000  H
  H32      1.0000 0.27407  0.55326  0.40122  Biso   1.000  H
  H33      1.0000 0.78553  0.55326  0.40122  Biso   1.000  H
  H34      1.0000 0.87837  0.15756  0.28854  Biso   1.000  H
  H35      1.0000 0.64993  0.15756  0.28854  Biso   1.000  H
  H36      1.0000 0.27407  0.55326  0.91268  Biso   1.000  H
  H37      1.0000 0.64993  0.15756  0.00552  Biso   1.000  H
  H38      1.0000 0.55709  0.27023  0.40122  Biso   1.000  H
  H39      1.0000 0.16361  0.15977  0.77318  Biso   1.000  H
  H40      1.0000 0.78943  0.26802  0.68477  Biso   1.000  H
  H41      1.0000 0.16360  0.15977  0.00499  Biso   1.000  H
  H42      1.0000 0.27185  0.78560  0.39901  Biso   1.000  H
  H43      1.0000 0.27407  0.27023  0.68424  Biso   1.000  H
  H44      1.0000 0.27407  0.27023  0.91268  Biso   1.000  H
  H45      1.0000 0.16360  0.64220  0.00499  Biso   1.000  H
  H46      1.0000 0.16360  0.87401  0.77318  Biso   1.000  H
  H47      1.0000 0.16361  0.87401  0.29076  Biso   1.000  H
  H48      1.0000 0.87837  0.15756  0.77708  Biso   1.000  H
