data_image0
_cell_length_a       18.2704
_cell_length_b       18.2704
_cell_length_c       18.2704
_cell_angle_alpha    60
_cell_angle_beta     60
_cell_angle_gamma    60

_symmetry_space_group_name_H-M    "P 1"
_symmetry_int_tables_number       1

loop_
  _symmetry_equiv_pos_as_xyz
  'x, y, z'

loop_
  _atom_site_label
  _atom_site_occupancy
  _atom_site_fract_x
  _atom_site_fract_y
  _atom_site_fract_z
  _atom_site_thermal_displace_type
  _atom_site_B_iso_or_equiv
  _atom_site_type_symbol
  Zn1      1.0000 0.29350  0.29349  0.11952  Biso   1.000  Zn
  Zn2      1.0000 0.29350  0.29349  0.29349  Biso   1.000  Zn
  Zn3      1.0000 0.11953  0.29349  0.29349  Biso   1.000  Zn
  Zn4      1.0000 0.29350  0.11952  0.29349  Biso   1.000  Zn
  Zn5      1.0000 0.70650  0.70651  0.88048  Biso   1.000  Zn
  Zn6      1.0000 0.70650  0.70651  0.70651  Biso   1.000  Zn
  Zn7      1.0000 0.70650  0.88048  0.70651  Biso   1.000  Zn
  Zn8      1.0000 0.88047  0.70651  0.70651  Biso   1.000  Zn
  H1       1.0000 0.45540  0.45540  0.93560  Biso   1.000  H
  H2       1.0000 0.45540  0.45540  0.15360  Biso   1.000  H
  H3       1.0000 0.93560  0.15360  0.45540  Biso   1.000  H
  H4       1.0000 0.15360  0.93560  0.45540  Biso   1.000  H
  H5       1.0000 0.45540  0.93560  0.15360  Biso   1.000  H
  H6       1.0000 0.45540  0.15360  0.93560  Biso   1.000  H
  H7       1.0000 0.93560  0.45540  0.45540  Biso   1.000  H
  H8       1.0000 0.15360  0.45540  0.45540  Biso   1.000  H
  H9       1.0000 0.45540  0.15360  0.45540  Biso   1.000  H
  H10      1.0000 0.45540  0.93560  0.45540  Biso   1.000  H
  H11      1.0000 0.93560  0.45540  0.15360  Biso   1.000  H
  H12      1.0000 0.15360  0.45540  0.93560  Biso   1.000  H
  H13      1.0000 0.54460  0.54460  0.06440  Biso   1.000  H
  H14      1.0000 0.54460  0.54460  0.84640  Biso   1.000  H
  H15      1.0000 0.84640  0.06440  0.54460  Biso   1.000  H
  H16      1.0000 0.06440  0.84640  0.54460  Biso   1.000  H
  H17      1.0000 0.06440  0.54460  0.84640  Biso   1.000  H
  H18      1.0000 0.84640  0.54460  0.06440  Biso   1.000  H
  H19      1.0000 0.54460  0.06440  0.54460  Biso   1.000  H
  H20      1.0000 0.54460  0.84640  0.54460  Biso   1.000  H
  H21      1.0000 0.84640  0.54460  0.54460  Biso   1.000  H
  H22      1.0000 0.06440  0.54460  0.54460  Biso   1.000  H
  H23      1.0000 0.54460  0.06440  0.84640  Biso   1.000  H
  H24      1.0000 0.54460  0.84640  0.06440  Biso   1.000  H
  C1       1.0000 0.47338  0.47338  0.96238  Biso   1.000  C
  C2       1.0000 0.47338  0.47338  0.09086  Biso   1.000  C
  C3       1.0000 0.96238  0.09086  0.47338  Biso   1.000  C
  C4       1.0000 0.09086  0.96238  0.47338  Biso   1.000  C
  C5       1.0000 0.47338  0.96238  0.09086  Biso   1.000  C
  C6       1.0000 0.47338  0.09086  0.96238  Biso   1.000  C
  C7       1.0000 0.96238  0.47338  0.47338  Biso   1.000  C
  C8       1.0000 0.09086  0.47338  0.47338  Biso   1.000  C
  C9       1.0000 0.47338  0.09086  0.47338  Biso   1.000  C
  C10      1.0000 0.47338  0.96238  0.47338  Biso   1.000  C
  C11      1.0000 0.96238  0.47338  0.09086  Biso   1.000  C
  C12      1.0000 0.09086  0.47338  0.96238  Biso   1.000  C
  C13      1.0000 0.52662  0.52662  0.03762  Biso   1.000  C
  C14      1.0000 0.52662  0.52662  0.90914  Biso   1.000  C
  C15      1.0000 0.90914  0.03762  0.52662  Biso   1.000  C
  C16      1.0000 0.03762  0.90914  0.52662  Biso   1.000  C
  C17      1.0000 0.03762  0.52662  0.90914  Biso   1.000  C
  C18      1.0000 0.90914  0.52662  0.03762  Biso   1.000  C
  C19      1.0000 0.52662  0.03762  0.52662  Biso   1.000  C
  C20      1.0000 0.52662  0.90914  0.52662  Biso   1.000  C
  C21      1.0000 0.90914  0.52662  0.52662  Biso   1.000  C
  C22      1.0000 0.03762  0.52662  0.52662  Biso   1.000  C
  C23      1.0000 0.52662  0.03762  0.90914  Biso   1.000  C
  C24      1.0000 0.52662  0.90914  0.03762  Biso   1.000  C
  C25      1.0000 0.38861  0.38861  0.11139  Biso   1.000  C
  C26      1.0000 0.44619  0.44619  0.05381  Biso   1.000  C
  C27      1.0000 0.11139  0.11139  0.38861  Biso   1.000  C
  C28      1.0000 0.05381  0.05381  0.44619  Biso   1.000  C
  C29      1.0000 0.38861  0.11139  0.11139  Biso   1.000  C
  C30      1.0000 0.44619  0.05381  0.05381  Biso   1.000  C
  C31      1.0000 0.11139  0.38861  0.38861  Biso   1.000  C
  C32      1.0000 0.05381  0.44619  0.44619  Biso   1.000  C
  C33      1.0000 0.38861  0.11139  0.38861  Biso   1.000  C
  C34      1.0000 0.44619  0.05381  0.44619  Biso   1.000  C
  C35      1.0000 0.11139  0.38861  0.11139  Biso   1.000  C
  C36      1.0000 0.05381  0.44619  0.05381  Biso   1.000  C
  C37      1.0000 0.61139  0.61139  0.88861  Biso   1.000  C
  C38      1.0000 0.55381  0.55381  0.94619  Biso   1.000  C
  C39      1.0000 0.88861  0.88861  0.61139  Biso   1.000  C
  C40      1.0000 0.94619  0.94619  0.55381  Biso   1.000  C
  C41      1.0000 0.88861  0.61139  0.88861  Biso   1.000  C
  C42      1.0000 0.94619  0.55381  0.94619  Biso   1.000  C
  C43      1.0000 0.61139  0.88861  0.61139  Biso   1.000  C
  C44      1.0000 0.55381  0.94619  0.55381  Biso   1.000  C
  C45      1.0000 0.88861  0.61139  0.61139  Biso   1.000  C
  C46      1.0000 0.94619  0.55381  0.55381  Biso   1.000  C
  C47      1.0000 0.61139  0.88861  0.88861  Biso   1.000  C
  C48      1.0000 0.55381  0.94619  0.94619  Biso   1.000  C
  O1       1.0000 0.25000  0.25000  0.25000  Biso   1.000  O
  O2       1.0000 0.75000  0.75000  0.75000  Biso   1.000  O
  O3       1.0000 0.36607  0.36607  0.07299  Biso   1.000  O
  O4       1.0000 0.36607  0.36607  0.19487  Biso   1.000  O
  O5       1.0000 0.07299  0.19487  0.36607  Biso   1.000  O
  O6       1.0000 0.19487  0.07299  0.36607  Biso   1.000  O
  O7       1.0000 0.36607  0.07299  0.19487  Biso   1.000  O
  O8       1.0000 0.36607  0.19487  0.07299  Biso   1.000  O
  O9       1.0000 0.07299  0.36607  0.36607  Biso   1.000  O
  O10      1.0000 0.19487  0.36607  0.36607  Biso   1.000  O
  O11      1.0000 0.36607  0.19487  0.36607  Biso   1.000  O
  O12      1.0000 0.36607  0.07299  0.36607  Biso   1.000  O
  O13      1.0000 0.07299  0.36607  0.19487  Biso   1.000  O
  O14      1.0000 0.19487  0.36607  0.07299  Biso   1.000  O
  O15      1.0000 0.63393  0.63393  0.92701  Biso   1.000  O
  O16      1.0000 0.63393  0.63393  0.80513  Biso   1.000  O
  O17      1.0000 0.80513  0.92701  0.63393  Biso   1.000  O
  O18      1.0000 0.92701  0.80513  0.63393  Biso   1.000  O
  O19      1.0000 0.92701  0.63393  0.80513  Biso   1.000  O
  O20      1.0000 0.80513  0.63393  0.92701  Biso   1.000  O
  O21      1.0000 0.63393  0.92701  0.63393  Biso   1.000  O
  O22      1.0000 0.63393  0.80513  0.63393  Biso   1.000  O
  O23      1.0000 0.80513  0.63393  0.63393  Biso   1.000  O
  O24      1.0000 0.92701  0.63393  0.63393  Biso   1.000  O
  O25      1.0000 0.63393  0.92701  0.80513  Biso   1.000  O
  O26      1.0000 0.63393  0.80513  0.92701  Biso   1.000  O
  Zn9      1.0000 0.98321  0.97668  0.87718  Biso   1.000  Zn
  Zn10     1.0000 0.55929  0.56830  0.47277  Biso   1.000  Zn
  Zn11     1.0000 0.98274  0.15166  0.87787  Biso   1.000  Zn
  Zn12     1.0000 0.98288  0.97692  0.05290  Biso   1.000  Zn
  Zn13     1.0000 0.15531  0.97736  0.87787  Biso   1.000  Zn
  Zn14     1.0000 0.38719  0.56762  0.47208  Biso   1.000  Zn
  Zn15     1.0000 0.55962  0.56805  0.29705  Biso   1.000  Zn
  Zn16     1.0000 0.55976  0.39331  0.47208  Biso   1.000  Zn
  H25      1.0000 0.81799  0.11442  0.24114  Biso   1.000  H
  H26      1.0000 0.33997  0.81137  0.01641  Biso   1.000  H
  H27      1.0000 0.11815  0.33953  0.71153  Biso   1.000  H
  H28      1.0000 0.42392  0.73417  0.10881  Biso   1.000  H
  H29      1.0000 0.72469  0.20621  0.33354  Biso   1.000  H
  H30      1.0000 0.20278  0.42924  0.63842  Biso   1.000  H
  H31      1.0000 0.72450  0.43056  0.10881  Biso   1.000  H
  H32      1.0000 0.20253  0.73361  0.33354  Biso   1.000  H
  H33      1.0000 0.42435  0.20545  0.63842  Biso   1.000  H
  H34      1.0000 0.11858  0.81081  0.24114  Biso   1.000  H
  H35      1.0000 0.81781  0.33877  0.01641  Biso   1.000  H
  H36      1.0000 0.33972  0.11573  0.71153  Biso   1.000  H
  H37      1.0000 0.82570  0.33275  0.71782  Biso   1.000  H
  H38      1.0000 0.82011  0.11675  0.71062  Biso   1.000  H
  H39      1.0000 0.82613  0.81708  0.23435  Biso   1.000  H
  H40      1.0000 0.82036  0.81046  0.01742  Biso   1.000  H
  H41      1.0000 0.33497  0.81837  0.71782  Biso   1.000  H
  H42      1.0000 0.12259  0.81122  0.71062  Biso   1.000  H
  H43      1.0000 0.20752  0.72661  0.63214  Biso   1.000  H
  H44      1.0000 0.41990  0.73376  0.63933  Biso   1.000  H
  H45      1.0000 0.71637  0.72790  0.11560  Biso   1.000  H
  H46      1.0000 0.72214  0.73452  0.33253  Biso   1.000  H
  H47      1.0000 0.71680  0.21222  0.63214  Biso   1.000  H
  H48      1.0000 0.72239  0.42823  0.63933  Biso   1.000  H
  C49      1.0000 0.80295  0.17664  0.21419  Biso   1.000  C
  C50      1.0000 0.31331  0.79618  0.07882  Biso   1.000  C
  C51      1.0000 0.17954  0.31273  0.69644  Biso   1.000  C
  C52      1.0000 0.36254  0.74914  0.13577  Biso   1.000  C
  C53      1.0000 0.73966  0.23320  0.27113  Biso   1.000  C
  C54      1.0000 0.22950  0.36705  0.65352  Biso   1.000  C
  C55      1.0000 0.73954  0.36834  0.13577  Biso   1.000  C
  C56      1.0000 0.22918  0.74880  0.27113  Biso   1.000  C
  C57      1.0000 0.36296  0.23225  0.65352  Biso   1.000  C
  C58      1.0000 0.17996  0.79584  0.21419  Biso   1.000  C
  C59      1.0000 0.80284  0.31178  0.07882  Biso   1.000  C
  C60      1.0000 0.31300  0.17793  0.69644  Biso   1.000  C
  C61      1.0000 0.88848  0.16258  0.78114  Biso   1.000  C
  C62      1.0000 0.83149  0.21711  0.72298  Biso   1.000  C
  C63      1.0000 0.80671  0.30929  0.69816  Biso   1.000  C
  C64      1.0000 0.80342  0.17884  0.69390  Biso   1.000  C
  C65      1.0000 0.88871  0.88057  0.06362  Biso   1.000  C
  C66      1.0000 0.83181  0.82252  0.11824  Biso   1.000  C
  C67      1.0000 0.80714  0.79757  0.21074  Biso   1.000  C
  C68      1.0000 0.80374  0.79365  0.07973  Biso   1.000  C
  C69      1.0000 0.16699  0.88127  0.78114  Biso   1.000  C
  C70      1.0000 0.22118  0.82350  0.72298  Biso   1.000  C
  C71      1.0000 0.31209  0.79884  0.69816  Biso   1.000  C
  C72      1.0000 0.18383  0.79461  0.69390  Biso   1.000  C
  C73      1.0000 0.37551  0.66370  0.56881  Biso   1.000  C
  C74      1.0000 0.32131  0.72148  0.62697  Biso   1.000  C
  C75      1.0000 0.23041  0.74613  0.65179  Biso   1.000  C
  C76      1.0000 0.35867  0.75036  0.65605  Biso   1.000  C
  C77      1.0000 0.65379  0.66441  0.28633  Biso   1.000  C
  C78      1.0000 0.71068  0.72246  0.23172  Biso   1.000  C
  C79      1.0000 0.73536  0.74741  0.13921  Biso   1.000  C
  C80      1.0000 0.73876  0.75132  0.27022  Biso   1.000  C
  C81      1.0000 0.65402  0.38240  0.56881  Biso   1.000  C
  C82      1.0000 0.71101  0.32787  0.62697  Biso   1.000  C
  C83      1.0000 0.73578  0.23568  0.65179  Biso   1.000  C
  C84      1.0000 0.73907  0.36614  0.65605  Biso   1.000  C
  C85      1.0000 0.88728  0.16117  0.06292  Biso   1.000  C
  C86      1.0000 0.83522  0.21457  0.11667  Biso   1.000  C
  C87      1.0000 0.16469  0.88097  0.06292  Biso   1.000  C
  C88      1.0000 0.21737  0.82857  0.11667  Biso   1.000  C
  C89      1.0000 0.16446  0.16187  0.78155  Biso   1.000  C
  C90      1.0000 0.21705  0.21553  0.72906  Biso   1.000  C
  C91      1.0000 0.37781  0.66400  0.28704  Biso   1.000  C
  C92      1.0000 0.32513  0.71640  0.23329  Biso   1.000  C
  C93      1.0000 0.65522  0.38380  0.28704  Biso   1.000  C
  C94      1.0000 0.70728  0.33041  0.23329  Biso   1.000  C
  C95      1.0000 0.37804  0.38310  0.56841  Biso   1.000  C
  C96      1.0000 0.32545  0.32945  0.62089  Biso   1.000  C
  O27      1.0000 0.91094  0.19993  0.97354  Biso   1.000  O
  O28      1.0000 0.07678  0.90468  0.10161  Biso   1.000  O
  O29      1.0000 0.20280  0.07281  0.80545  Biso   1.000  O
  O30      1.0000 0.33956  0.63998  0.37641  Biso   1.000  O
  O31      1.0000 0.63145  0.47290  0.24834  Biso   1.000  O
  O32      1.0000 0.46597  0.34463  0.54450  Biso   1.000  O
  O33      1.0000 0.63156  0.34505  0.37641  Biso   1.000  O
  O34      1.0000 0.46572  0.64030  0.24834  Biso   1.000  O
  O35      1.0000 0.33970  0.47217  0.54450  Biso   1.000  O
  O36      1.0000 0.20294  0.90500  0.97354  Biso   1.000  O
  O37      1.0000 0.91105  0.07207  0.10161  Biso   1.000  O
  O38      1.0000 0.07653  0.20035  0.80545  Biso   1.000  O
  O39      1.0000 0.02774  0.02241  0.92322  Biso   1.000  O
  O40      1.0000 0.51476  0.52257  0.42673  Biso   1.000  O
  O41      1.0000 0.91155  0.07383  0.80424  Biso   1.000  O
  O42      1.0000 0.91042  0.20097  0.80394  Biso   1.000  O
  O43      1.0000 0.91169  0.90380  0.97456  Biso   1.000  O
  O44      1.0000 0.91067  0.90317  0.10223  Biso   1.000  O
  O45      1.0000 0.07948  0.90422  0.80424  Biso   1.000  O
  O46      1.0000 0.20452  0.90392  0.80394  Biso   1.000  O
  O47      1.0000 0.46302  0.64076  0.54571  Biso   1.000  O
  O48      1.0000 0.33798  0.64106  0.54601  Biso   1.000  O
  O49      1.0000 0.63081  0.64118  0.37539  Biso   1.000  O
  O50      1.0000 0.63183  0.64180  0.24772  Biso   1.000  O
  O51      1.0000 0.63095  0.47114  0.54571  Biso   1.000  O
  O52      1.0000 0.63207  0.34401  0.54601  Biso   1.000  O
