data_image0
_cell_length_a       18.3083
_cell_length_b       18.3083
_cell_length_c       18.3083
_cell_angle_alpha    60
_cell_angle_beta     60
_cell_angle_gamma    60

_symmetry_space_group_name_H-M    "P 1"
_symmetry_int_tables_number       1

loop_
  _symmetry_equiv_pos_as_xyz
  'x, y, z'

loop_
  _atom_site_label
  _atom_site_occupancy
  _atom_site_fract_x
  _atom_site_fract_y
  _atom_site_fract_z
  _atom_site_thermal_displace_type
  _atom_site_B_iso_or_equiv
  _atom_site_type_symbol
  Zn1      1.0000 0.29342  0.29341  0.11976  Biso   1.000  Zn
  Zn2      1.0000 0.29342  0.29341  0.29341  Biso   1.000  Zn
  Zn3      1.0000 0.11977  0.29341  0.29341  Biso   1.000  Zn
  Zn4      1.0000 0.29342  0.11976  0.29341  Biso   1.000  Zn
  Zn5      1.0000 0.70658  0.70659  0.88024  Biso   1.000  Zn
  Zn6      1.0000 0.70658  0.70659  0.70659  Biso   1.000  Zn
  Zn7      1.0000 0.70658  0.88024  0.70659  Biso   1.000  Zn
  Zn8      1.0000 0.88023  0.70659  0.70659  Biso   1.000  Zn
  H1       1.0000 0.45480  0.45480  0.93480  Biso   1.000  H
  H2       1.0000 0.45480  0.45480  0.15560  Biso   1.000  H
  H3       1.0000 0.93480  0.15560  0.45480  Biso   1.000  H
  H4       1.0000 0.15560  0.93480  0.45480  Biso   1.000  H
  H5       1.0000 0.45480  0.93480  0.15560  Biso   1.000  H
  H6       1.0000 0.45480  0.15560  0.93480  Biso   1.000  H
  H7       1.0000 0.93480  0.45480  0.45480  Biso   1.000  H
  H8       1.0000 0.15560  0.45480  0.45480  Biso   1.000  H
  H9       1.0000 0.45480  0.15560  0.45480  Biso   1.000  H
  H10      1.0000 0.45480  0.93480  0.45480  Biso   1.000  H
  H11      1.0000 0.93480  0.45480  0.15560  Biso   1.000  H
  H12      1.0000 0.15560  0.45480  0.93480  Biso   1.000  H
  H13      1.0000 0.54520  0.54520  0.06520  Biso   1.000  H
  H14      1.0000 0.54520  0.54520  0.84440  Biso   1.000  H
  H15      1.0000 0.84440  0.06520  0.54520  Biso   1.000  H
  H16      1.0000 0.06520  0.84440  0.54520  Biso   1.000  H
  H17      1.0000 0.06520  0.54520  0.84440  Biso   1.000  H
  H18      1.0000 0.84440  0.54520  0.06520  Biso   1.000  H
  H19      1.0000 0.54520  0.06520  0.54520  Biso   1.000  H
  H20      1.0000 0.54520  0.84440  0.54520  Biso   1.000  H
  H21      1.0000 0.84440  0.54520  0.54520  Biso   1.000  H
  H22      1.0000 0.06520  0.54520  0.54520  Biso   1.000  H
  H23      1.0000 0.54520  0.06520  0.84440  Biso   1.000  H
  H24      1.0000 0.54520  0.84440  0.06520  Biso   1.000  H
  C1       1.0000 0.47317  0.47317  0.96131  Biso   1.000  C
  C2       1.0000 0.47317  0.47317  0.09235  Biso   1.000  C
  C3       1.0000 0.96131  0.09235  0.47317  Biso   1.000  C
  C4       1.0000 0.09235  0.96131  0.47317  Biso   1.000  C
  C5       1.0000 0.47317  0.96131  0.09235  Biso   1.000  C
  C6       1.0000 0.47317  0.09235  0.96131  Biso   1.000  C
  C7       1.0000 0.96131  0.47317  0.47317  Biso   1.000  C
  C8       1.0000 0.09235  0.47317  0.47317  Biso   1.000  C
  C9       1.0000 0.47317  0.09235  0.47317  Biso   1.000  C
  C10      1.0000 0.47317  0.96131  0.47317  Biso   1.000  C
  C11      1.0000 0.96131  0.47317  0.09235  Biso   1.000  C
  C12      1.0000 0.09235  0.47317  0.96131  Biso   1.000  C
  C13      1.0000 0.52683  0.52683  0.03869  Biso   1.000  C
  C14      1.0000 0.52683  0.52683  0.90765  Biso   1.000  C
  C15      1.0000 0.90765  0.03869  0.52683  Biso   1.000  C
  C16      1.0000 0.03869  0.90765  0.52683  Biso   1.000  C
  C17      1.0000 0.03869  0.52683  0.90765  Biso   1.000  C
  C18      1.0000 0.90765  0.52683  0.03869  Biso   1.000  C
  C19      1.0000 0.52683  0.03869  0.52683  Biso   1.000  C
  C20      1.0000 0.52683  0.90765  0.52683  Biso   1.000  C
  C21      1.0000 0.90765  0.52683  0.52683  Biso   1.000  C
  C22      1.0000 0.03869  0.52683  0.52683  Biso   1.000  C
  C23      1.0000 0.52683  0.03869  0.90765  Biso   1.000  C
  C24      1.0000 0.52683  0.90765  0.03869  Biso   1.000  C
  C25      1.0000 0.38843  0.38843  0.11157  Biso   1.000  C
  C26      1.0000 0.44641  0.44641  0.05359  Biso   1.000  C
  C27      1.0000 0.11157  0.11157  0.38843  Biso   1.000  C
  C28      1.0000 0.05359  0.05359  0.44641  Biso   1.000  C
  C29      1.0000 0.38843  0.11157  0.11157  Biso   1.000  C
  C30      1.0000 0.44641  0.05359  0.05359  Biso   1.000  C
  C31      1.0000 0.11157  0.38843  0.38843  Biso   1.000  C
  C32      1.0000 0.05359  0.44641  0.44641  Biso   1.000  C
  C33      1.0000 0.38843  0.11157  0.38843  Biso   1.000  C
  C34      1.0000 0.44641  0.05359  0.44641  Biso   1.000  C
  C35      1.0000 0.11157  0.38843  0.11157  Biso   1.000  C
  C36      1.0000 0.05359  0.44641  0.05359  Biso   1.000  C
  C37      1.0000 0.61157  0.61157  0.88843  Biso   1.000  C
  C38      1.0000 0.55359  0.55359  0.94641  Biso   1.000  C
  C39      1.0000 0.88843  0.88843  0.61157  Biso   1.000  C
  C40      1.0000 0.94641  0.94641  0.55359  Biso   1.000  C
  C41      1.0000 0.88843  0.61157  0.88843  Biso   1.000  C
  C42      1.0000 0.94641  0.55359  0.94641  Biso   1.000  C
  C43      1.0000 0.61157  0.88843  0.61157  Biso   1.000  C
  C44      1.0000 0.55359  0.94641  0.55359  Biso   1.000  C
  C45      1.0000 0.88843  0.61157  0.61157  Biso   1.000  C
  C46      1.0000 0.94641  0.55359  0.55359  Biso   1.000  C
  C47      1.0000 0.61157  0.88843  0.88843  Biso   1.000  C
  C48      1.0000 0.55359  0.94641  0.94641  Biso   1.000  C
  O1       1.0000 0.25000  0.25000  0.25000  Biso   1.000  O
  O2       1.0000 0.75000  0.75000  0.75000  Biso   1.000  O
  O3       1.0000 0.36629  0.36629  0.07237  Biso   1.000  O
  O4       1.0000 0.36629  0.36629  0.19505  Biso   1.000  O
  O5       1.0000 0.07237  0.19505  0.36629  Biso   1.000  O
  O6       1.0000 0.19505  0.07237  0.36629  Biso   1.000  O
  O7       1.0000 0.36629  0.07237  0.19505  Biso   1.000  O
  O8       1.0000 0.36629  0.19505  0.07237  Biso   1.000  O
  O9       1.0000 0.07237  0.36629  0.36629  Biso   1.000  O
  O10      1.0000 0.19505  0.36629  0.36629  Biso   1.000  O
  O11      1.0000 0.36629  0.19505  0.36629  Biso   1.000  O
  O12      1.0000 0.36629  0.07237  0.36629  Biso   1.000  O
  O13      1.0000 0.07237  0.36629  0.19505  Biso   1.000  O
  O14      1.0000 0.19505  0.36629  0.07237  Biso   1.000  O
  O15      1.0000 0.63371  0.63371  0.92763  Biso   1.000  O
  O16      1.0000 0.63371  0.63371  0.80495  Biso   1.000  O
  O17      1.0000 0.80495  0.92763  0.63371  Biso   1.000  O
  O18      1.0000 0.92763  0.80495  0.63371  Biso   1.000  O
  O19      1.0000 0.92763  0.63371  0.80495  Biso   1.000  O
  O20      1.0000 0.80495  0.63371  0.92763  Biso   1.000  O
  O21      1.0000 0.63371  0.92763  0.63371  Biso   1.000  O
  O22      1.0000 0.63371  0.80495  0.63371  Biso   1.000  O
  O23      1.0000 0.80495  0.63371  0.63371  Biso   1.000  O
  O24      1.0000 0.92763  0.63371  0.63371  Biso   1.000  O
  O25      1.0000 0.63371  0.92763  0.80495  Biso   1.000  O
  O26      1.0000 0.63371  0.80495  0.92763  Biso   1.000  O
  Zn9      1.0000 0.00543  0.82914  0.13232  Biso   1.000  Zn
  Zn10     1.0000 0.83509  0.99948  0.13232  Biso   1.000  Zn
  Zn11     1.0000 0.43122  0.42527  0.72845  Biso   1.000  Zn
  Zn12     1.0000 0.00543  0.99948  0.13232  Biso   1.000  Zn
  Zn13     1.0000 0.43122  0.59561  0.55811  Biso   1.000  Zn
  Zn14     1.0000 0.43122  0.42527  0.55811  Biso   1.000  Zn
  Zn15     1.0000 0.60157  0.42527  0.55811  Biso   1.000  Zn
  Zn16     1.0000 0.00543  0.99948  0.96197  Biso   1.000  Zn
  C49      1.0000 0.63314  0.74847  0.38072  Biso   1.000  C
  C50      1.0000 0.18282  0.67629  0.30970  Biso   1.000  C
  C51      1.0000 0.75442  0.24789  0.38072  Biso   1.000  C
  C52      1.0000 0.15465  0.76509  0.89793  Biso   1.000  C
  C53      1.0000 0.63314  0.24789  0.88130  Biso   1.000  C
  C54      1.0000 0.77105  0.76509  0.28153  Biso   1.000  C
  C55      1.0000 0.60810  0.60215  0.46640  Biso   1.000  C
  C56      1.0000 0.68224  0.79757  0.30970  Biso   1.000  C
  C57      1.0000 0.80352  0.67629  0.30970  Biso   1.000  C
  C58      1.0000 0.15465  0.14870  0.89793  Biso   1.000  C
  C59      1.0000 0.15465  0.76509  0.28153  Biso   1.000  C
  C60      1.0000 0.25384  0.74847  0.76002  Biso   1.000  C
  C61      1.0000 0.25384  0.62719  0.38072  Biso   1.000  C
  C62      1.0000 0.09714  0.82261  0.22402  Biso   1.000  C
  C63      1.0000 0.82856  0.09119  0.95544  Biso   1.000  C
  C64      1.0000 0.60810  0.33357  0.46640  Biso   1.000  C
  C65      1.0000 0.82856  0.09119  0.22402  Biso   1.000  C
  C66      1.0000 0.82856  0.82261  0.22402  Biso   1.000  C
  C67      1.0000 0.75442  0.62719  0.38072  Biso   1.000  C
  C68      1.0000 0.80352  0.17686  0.30970  Biso   1.000  C
  C69      1.0000 0.33952  0.60215  0.46640  Biso   1.000  C
  C70      1.0000 0.68224  0.17686  0.30970  Biso   1.000  C
  C71      1.0000 0.25384  0.62719  0.88130  Biso   1.000  C
  C72      1.0000 0.09714  0.09119  0.95544  Biso   1.000  C
  C73      1.0000 0.68224  0.17686  0.93040  Biso   1.000  C
  C74      1.0000 0.60810  0.33357  0.73498  Biso   1.000  C
  C75      1.0000 0.28201  0.65966  0.40889  Biso   1.000  C
  C76      1.0000 0.63314  0.24789  0.38072  Biso   1.000  C
  C77      1.0000 0.18282  0.17686  0.80912  Biso   1.000  C
  C78      1.0000 0.09714  0.82261  0.95544  Biso   1.000  C
  C79      1.0000 0.75442  0.24789  0.76002  Biso   1.000  C
  C80      1.0000 0.18282  0.17686  0.93040  Biso   1.000  C
  C81      1.0000 0.66561  0.27606  0.79249  Biso   1.000  C
  C82      1.0000 0.25384  0.74847  0.38072  Biso   1.000  C
  C83      1.0000 0.25384  0.24789  0.76002  Biso   1.000  C
  C84      1.0000 0.33952  0.60215  0.73498  Biso   1.000  C
  C85      1.0000 0.25384  0.24789  0.88130  Biso   1.000  C
  C86      1.0000 0.18282  0.67629  0.93040  Biso   1.000  C
  C87      1.0000 0.18282  0.79757  0.80912  Biso   1.000  C
  C88      1.0000 0.77105  0.14870  0.28153  Biso   1.000  C
  C89      1.0000 0.18282  0.79757  0.30970  Biso   1.000  C
  C90      1.0000 0.66561  0.27606  0.40889  Biso   1.000  C
  C91      1.0000 0.28201  0.65966  0.79249  Biso   1.000  C
  C92      1.0000 0.33952  0.33357  0.73498  Biso   1.000  C
  C93      1.0000 0.28201  0.27606  0.79249  Biso   1.000  C
  C94      1.0000 0.77105  0.14870  0.89793  Biso   1.000  C
  C95      1.0000 0.80352  0.17686  0.80912  Biso   1.000  C
  C96      1.0000 0.66561  0.65966  0.40889  Biso   1.000  C
  O27      1.0000 0.35996  0.64370  0.48684  Biso   1.000  O
  O28      1.0000 0.35996  0.64370  0.65255  Biso   1.000  O
  O29      1.0000 0.07670  0.78106  0.20358  Biso   1.000  O
  O30      1.0000 0.52567  0.35401  0.77653  Biso   1.000  O
  O31      1.0000 0.35996  0.35401  0.77653  Biso   1.000  O
  O32      1.0000 0.07670  0.78106  0.03787  Biso   1.000  O
  O33      1.0000 0.91099  0.07074  0.91389  Biso   1.000  O
  O34      1.0000 0.07670  0.07074  0.91389  Biso   1.000  O
  O35      1.0000 0.35996  0.51971  0.48684  Biso   1.000  O
  O36      1.0000 0.64965  0.51971  0.48684  Biso   1.000  O
  O37      1.0000 0.07670  0.90504  0.20358  Biso   1.000  O
  O38      1.0000 0.35996  0.35401  0.65255  Biso   1.000  O
  O39      1.0000 0.91099  0.07074  0.20358  Biso   1.000  O
  O40      1.0000 0.78701  0.90504  0.20358  Biso   1.000  O
  O41      1.0000 0.78701  0.07074  0.20358  Biso   1.000  O
  O42      1.0000 0.35996  0.51971  0.77653  Biso   1.000  O
  O43      1.0000 0.47381  0.46786  0.60069  Biso   1.000  O
  O44      1.0000 0.52567  0.64370  0.48684  Biso   1.000  O
  O45      1.0000 0.91099  0.78106  0.20358  Biso   1.000  O
  O46      1.0000 0.78701  0.07074  0.03787  Biso   1.000  O
  O47      1.0000 0.64965  0.35401  0.48684  Biso   1.000  O
  O48      1.0000 0.07670  0.07074  0.03787  Biso   1.000  O
  O49      1.0000 0.96285  0.95690  0.08973  Biso   1.000  O
  O50      1.0000 0.52567  0.35401  0.48684  Biso   1.000  O
  O51      1.0000 0.07670  0.90504  0.91389  Biso   1.000  O
  O52      1.0000 0.64965  0.35401  0.65255  Biso   1.000  O
  H25      1.0000 0.55803  0.78003  0.40250  Biso   1.000  H
  H26      1.0000 0.16326  0.64083  0.29014  Biso   1.000  H
  H27      1.0000 0.78598  0.26966  0.40250  Biso   1.000  H
  H28      1.0000 0.55803  0.26966  0.91287  Biso   1.000  H
  H29      1.0000 0.65068  0.87267  0.28793  Biso   1.000  H
  H30      1.0000 0.87810  0.64083  0.29014  Biso   1.000  H
  H31      1.0000 0.27561  0.78003  0.68491  Biso   1.000  H
  H32      1.0000 0.27561  0.55208  0.40250  Biso   1.000  H
  H33      1.0000 0.78598  0.55208  0.40250  Biso   1.000  H
  H34      1.0000 0.87863  0.15509  0.28793  Biso   1.000  H
  H35      1.0000 0.65068  0.15509  0.28793  Biso   1.000  H
  H36      1.0000 0.27561  0.55208  0.91287  Biso   1.000  H
  H37      1.0000 0.65068  0.15509  0.00551  Biso   1.000  H
  H38      1.0000 0.55803  0.26966  0.40250  Biso   1.000  H
  H39      1.0000 0.16326  0.15730  0.77367  Biso   1.000  H
  H40      1.0000 0.78988  0.26745  0.68544  Biso   1.000  H
  H41      1.0000 0.16326  0.15730  0.00498  Biso   1.000  H
  H42      1.0000 0.27340  0.78392  0.40028  Biso   1.000  H
  H43      1.0000 0.27561  0.26966  0.68491  Biso   1.000  H
  H44      1.0000 0.27561  0.26966  0.91287  Biso   1.000  H
  H45      1.0000 0.16326  0.64083  0.00498  Biso   1.000  H
  H46      1.0000 0.16326  0.87215  0.77367  Biso   1.000  H
  H47      1.0000 0.16326  0.87215  0.29014  Biso   1.000  H
  H48      1.0000 0.87863  0.15509  0.77756  Biso   1.000  H
