data_image0
_cell_length_a       18.3083
_cell_length_b       18.3083
_cell_length_c       18.3083
_cell_angle_alpha    60
_cell_angle_beta     60
_cell_angle_gamma    60

_symmetry_space_group_name_H-M    "P 1"
_symmetry_int_tables_number       1

loop_
  _symmetry_equiv_pos_as_xyz
  'x, y, z'

loop_
  _atom_site_label
  _atom_site_occupancy
  _atom_site_fract_x
  _atom_site_fract_y
  _atom_site_fract_z
  _atom_site_thermal_displace_type
  _atom_site_B_iso_or_equiv
  _atom_site_type_symbol
  Zn1      1.0000 0.29342  0.29341  0.11976  Biso   1.000  Zn
  Zn2      1.0000 0.29342  0.29341  0.29341  Biso   1.000  Zn
  Zn3      1.0000 0.11977  0.29341  0.29341  Biso   1.000  Zn
  Zn4      1.0000 0.29342  0.11976  0.29341  Biso   1.000  Zn
  Zn5      1.0000 0.70658  0.70659  0.88024  Biso   1.000  Zn
  Zn6      1.0000 0.70658  0.70659  0.70659  Biso   1.000  Zn
  Zn7      1.0000 0.70658  0.88024  0.70659  Biso   1.000  Zn
  Zn8      1.0000 0.88023  0.70659  0.70659  Biso   1.000  Zn
  H1       1.0000 0.45480  0.45480  0.93480  Biso   1.000  H
  H2       1.0000 0.45480  0.45480  0.15560  Biso   1.000  H
  H3       1.0000 0.93480  0.15560  0.45480  Biso   1.000  H
  H4       1.0000 0.15560  0.93480  0.45480  Biso   1.000  H
  H5       1.0000 0.45480  0.93480  0.15560  Biso   1.000  H
  H6       1.0000 0.45480  0.15560  0.93480  Biso   1.000  H
  H7       1.0000 0.93480  0.45480  0.45480  Biso   1.000  H
  H8       1.0000 0.15560  0.45480  0.45480  Biso   1.000  H
  H9       1.0000 0.45480  0.15560  0.45480  Biso   1.000  H
  H10      1.0000 0.45480  0.93480  0.45480  Biso   1.000  H
  H11      1.0000 0.93480  0.45480  0.15560  Biso   1.000  H
  H12      1.0000 0.15560  0.45480  0.93480  Biso   1.000  H
  H13      1.0000 0.54520  0.54520  0.06520  Biso   1.000  H
  H14      1.0000 0.54520  0.54520  0.84440  Biso   1.000  H
  H15      1.0000 0.84440  0.06520  0.54520  Biso   1.000  H
  H16      1.0000 0.06520  0.84440  0.54520  Biso   1.000  H
  H17      1.0000 0.06520  0.54520  0.84440  Biso   1.000  H
  H18      1.0000 0.84440  0.54520  0.06520  Biso   1.000  H
  H19      1.0000 0.54520  0.06520  0.54520  Biso   1.000  H
  H20      1.0000 0.54520  0.84440  0.54520  Biso   1.000  H
  H21      1.0000 0.84440  0.54520  0.54520  Biso   1.000  H
  H22      1.0000 0.06520  0.54520  0.54520  Biso   1.000  H
  H23      1.0000 0.54520  0.06520  0.84440  Biso   1.000  H
  H24      1.0000 0.54520  0.84440  0.06520  Biso   1.000  H
  C1       1.0000 0.47317  0.47317  0.96131  Biso   1.000  C
  C2       1.0000 0.47317  0.47317  0.09235  Biso   1.000  C
  C3       1.0000 0.96131  0.09235  0.47317  Biso   1.000  C
  C4       1.0000 0.09235  0.96131  0.47317  Biso   1.000  C
  C5       1.0000 0.47317  0.96131  0.09235  Biso   1.000  C
  C6       1.0000 0.47317  0.09235  0.96131  Biso   1.000  C
  C7       1.0000 0.96131  0.47317  0.47317  Biso   1.000  C
  C8       1.0000 0.09235  0.47317  0.47317  Biso   1.000  C
  C9       1.0000 0.47317  0.09235  0.47317  Biso   1.000  C
  C10      1.0000 0.47317  0.96131  0.47317  Biso   1.000  C
  C11      1.0000 0.96131  0.47317  0.09235  Biso   1.000  C
  C12      1.0000 0.09235  0.47317  0.96131  Biso   1.000  C
  C13      1.0000 0.52683  0.52683  0.03869  Biso   1.000  C
  C14      1.0000 0.52683  0.52683  0.90765  Biso   1.000  C
  C15      1.0000 0.90765  0.03869  0.52683  Biso   1.000  C
  C16      1.0000 0.03869  0.90765  0.52683  Biso   1.000  C
  C17      1.0000 0.03869  0.52683  0.90765  Biso   1.000  C
  C18      1.0000 0.90765  0.52683  0.03869  Biso   1.000  C
  C19      1.0000 0.52683  0.03869  0.52683  Biso   1.000  C
  C20      1.0000 0.52683  0.90765  0.52683  Biso   1.000  C
  C21      1.0000 0.90765  0.52683  0.52683  Biso   1.000  C
  C22      1.0000 0.03869  0.52683  0.52683  Biso   1.000  C
  C23      1.0000 0.52683  0.03869  0.90765  Biso   1.000  C
  C24      1.0000 0.52683  0.90765  0.03869  Biso   1.000  C
  C25      1.0000 0.38843  0.38843  0.11157  Biso   1.000  C
  C26      1.0000 0.44641  0.44641  0.05359  Biso   1.000  C
  C27      1.0000 0.11157  0.11157  0.38843  Biso   1.000  C
  C28      1.0000 0.05359  0.05359  0.44641  Biso   1.000  C
  C29      1.0000 0.38843  0.11157  0.11157  Biso   1.000  C
  C30      1.0000 0.44641  0.05359  0.05359  Biso   1.000  C
  C31      1.0000 0.11157  0.38843  0.38843  Biso   1.000  C
  C32      1.0000 0.05359  0.44641  0.44641  Biso   1.000  C
  C33      1.0000 0.38843  0.11157  0.38843  Biso   1.000  C
  C34      1.0000 0.44641  0.05359  0.44641  Biso   1.000  C
  C35      1.0000 0.11157  0.38843  0.11157  Biso   1.000  C
  C36      1.0000 0.05359  0.44641  0.05359  Biso   1.000  C
  C37      1.0000 0.61157  0.61157  0.88843  Biso   1.000  C
  C38      1.0000 0.55359  0.55359  0.94641  Biso   1.000  C
  C39      1.0000 0.88843  0.88843  0.61157  Biso   1.000  C
  C40      1.0000 0.94641  0.94641  0.55359  Biso   1.000  C
  C41      1.0000 0.88843  0.61157  0.88843  Biso   1.000  C
  C42      1.0000 0.94641  0.55359  0.94641  Biso   1.000  C
  C43      1.0000 0.61157  0.88843  0.61157  Biso   1.000  C
  C44      1.0000 0.55359  0.94641  0.55359  Biso   1.000  C
  C45      1.0000 0.88843  0.61157  0.61157  Biso   1.000  C
  C46      1.0000 0.94641  0.55359  0.55359  Biso   1.000  C
  C47      1.0000 0.61157  0.88843  0.88843  Biso   1.000  C
  C48      1.0000 0.55359  0.94641  0.94641  Biso   1.000  C
  O1       1.0000 0.25000  0.25000  0.25000  Biso   1.000  O
  O2       1.0000 0.75000  0.75000  0.75000  Biso   1.000  O
  O3       1.0000 0.36629  0.36629  0.07237  Biso   1.000  O
  O4       1.0000 0.36629  0.36629  0.19505  Biso   1.000  O
  O5       1.0000 0.07237  0.19505  0.36629  Biso   1.000  O
  O6       1.0000 0.19505  0.07237  0.36629  Biso   1.000  O
  O7       1.0000 0.36629  0.07237  0.19505  Biso   1.000  O
  O8       1.0000 0.36629  0.19505  0.07237  Biso   1.000  O
  O9       1.0000 0.07237  0.36629  0.36629  Biso   1.000  O
  O10      1.0000 0.19505  0.36629  0.36629  Biso   1.000  O
  O11      1.0000 0.36629  0.19505  0.36629  Biso   1.000  O
  O12      1.0000 0.36629  0.07237  0.36629  Biso   1.000  O
  O13      1.0000 0.07237  0.36629  0.19505  Biso   1.000  O
  O14      1.0000 0.19505  0.36629  0.07237  Biso   1.000  O
  O15      1.0000 0.63371  0.63371  0.92763  Biso   1.000  O
  O16      1.0000 0.63371  0.63371  0.80495  Biso   1.000  O
  O17      1.0000 0.80495  0.92763  0.63371  Biso   1.000  O
  O18      1.0000 0.92763  0.80495  0.63371  Biso   1.000  O
  O19      1.0000 0.92763  0.63371  0.80495  Biso   1.000  O
  O20      1.0000 0.80495  0.63371  0.92763  Biso   1.000  O
  O21      1.0000 0.63371  0.92763  0.63371  Biso   1.000  O
  O22      1.0000 0.63371  0.80495  0.63371  Biso   1.000  O
  O23      1.0000 0.80495  0.63371  0.63371  Biso   1.000  O
  O24      1.0000 0.92763  0.63371  0.63371  Biso   1.000  O
  O25      1.0000 0.63371  0.92763  0.80495  Biso   1.000  O
  O26      1.0000 0.63371  0.80495  0.92763  Biso   1.000  O
  Zn9      1.0000 0.57439  0.42559  0.42557  Biso   1.000  Zn
  Zn10     1.0000 0.12593  0.85137  0.02241  Biso   1.000  Zn
  Zn11     1.0000 0.12593  0.02262  0.02241  Biso   1.000  Zn
  Zn12     1.0000 0.57439  0.59684  0.42557  Biso   1.000  Zn
  Zn13     1.0000 0.57435  0.42552  0.59703  Biso   1.000  Zn
  Zn14     1.0000 0.74541  0.42577  0.42544  Biso   1.000  Zn
  Zn15     1.0000 0.12597  0.02270  0.85095  Biso   1.000  Zn
  Zn16     1.0000 0.95491  0.02244  0.02254  Biso   1.000  Zn
  H25      1.0000 0.38962  0.27105  0.80011  Biso   1.000  H
  H26      1.0000 0.38869  0.27257  0.56008  Biso   1.000  H
  H27      1.0000 0.38584  0.56015  0.27336  Biso   1.000  H
  H28      1.0000 0.31069  0.88667  0.64787  Biso   1.000  H
  H29      1.0000 0.31163  0.64716  0.88790  Biso   1.000  H
  H30      1.0000 0.31448  0.64519  0.17462  Biso   1.000  H
  H31      1.0000 0.31069  0.17717  0.64787  Biso   1.000  H
  H32      1.0000 0.31163  0.17564  0.88790  Biso   1.000  H
  H33      1.0000 0.31448  0.88807  0.17462  Biso   1.000  H
  H34      1.0000 0.38962  0.56154  0.80011  Biso   1.000  H
  H35      1.0000 0.38869  0.80106  0.56009  Biso   1.000  H
  H36      1.0000 0.38584  0.80303  0.27336  Biso   1.000  H
  C49      1.0000 0.48838  0.33864  0.60144  Biso   1.000  C
  C50      1.0000 0.42524  0.27501  0.65990  Biso   1.000  C
  C51      1.0000 0.37418  0.24994  0.77410  Biso   1.000  C
  C52      1.0000 0.37422  0.25136  0.62246  Biso   1.000  C
  C53      1.0000 0.74631  0.33924  0.33935  Biso   1.000  C
  C54      1.0000 0.37264  0.62241  0.24999  Biso   1.000  C
  C55      1.0000 0.21194  0.85427  0.84654  Biso   1.000  C
  C56      1.0000 0.27507  0.78595  0.78808  Biso   1.000  C
  C57      1.0000 0.32614  0.82412  0.67388  Biso   1.000  C
  C58      1.0000 0.32609  0.67384  0.82552  Biso   1.000  C
  C59      1.0000 0.95401  0.85073  0.10863  Biso   1.000  C
  C60      1.0000 0.32768  0.67089  0.19799  Biso   1.000  C
  C61      1.0000 0.21194  0.10957  0.84654  Biso   1.000  C
  C62      1.0000 0.27507  0.17321  0.78808  Biso   1.000  C
  C63      1.0000 0.32614  0.19828  0.67388  Biso   1.000  C
  C64      1.0000 0.32609  0.19686  0.82552  Biso   1.000  C
  C65      1.0000 0.95401  0.10897  0.10863  Biso   1.000  C
  C66      1.0000 0.32768  0.82580  0.19799  Biso   1.000  C
  C67      1.0000 0.48838  0.59395  0.60144  Biso   1.000  C
  C68      1.0000 0.42524  0.66227  0.65990  Biso   1.000  C
  C69      1.0000 0.37418  0.62410  0.77410  Biso   1.000  C
  C70      1.0000 0.37422  0.77437  0.62246  Biso   1.000  C
  C71      1.0000 0.74631  0.59748  0.33935  Biso   1.000  C
  C72      1.0000 0.37264  0.77732  0.24999  Biso   1.000  C
  C73      1.0000 0.74437  0.33835  0.60134  Biso   1.000  C
  C74      1.0000 0.48504  0.59856  0.34023  Biso   1.000  C
  C75      1.0000 0.42503  0.66248  0.27238  Biso   1.000  C
  C76      1.0000 0.95595  0.10987  0.84664  Biso   1.000  C
  C77      1.0000 0.21527  0.84966  0.10775  Biso   1.000  C
  C78      1.0000 0.27529  0.78573  0.17560  Biso   1.000  C
  O27      1.0000 0.50559  0.35467  0.64465  Biso   1.000  O
  O28      1.0000 0.50362  0.35389  0.51991  Biso   1.000  O
  O29      1.0000 0.79479  0.35449  0.35538  Biso   1.000  O
  O30      1.0000 0.66646  0.35429  0.35528  Biso   1.000  O
  O31      1.0000 0.50440  0.51821  0.35372  Biso   1.000  O
  O32      1.0000 0.19473  0.93070  0.80333  Biso   1.000  O
  O33      1.0000 0.19669  0.80324  0.92807  Biso   1.000  O
  O34      1.0000 0.90553  0.93049  0.09260  Biso   1.000  O
  O35      1.0000 0.03386  0.80186  0.09270  Biso   1.000  O
  O36      1.0000 0.19592  0.80216  0.09426  Biso   1.000  O
  O37      1.0000 0.19473  0.09354  0.80333  Biso   1.000  O
  O38      1.0000 0.19669  0.09432  0.92807  Biso   1.000  O
  O39      1.0000 0.90553  0.09372  0.09260  Biso   1.000  O
  O40      1.0000 0.03386  0.09392  0.09270  Biso   1.000  O
  O41      1.0000 0.19592  0.93000  0.09426  Biso   1.000  O
  O42      1.0000 0.50559  0.51751  0.64465  Biso   1.000  O
  O43      1.0000 0.50363  0.64497  0.51991  Biso   1.000  O
  O44      1.0000 0.79479  0.51772  0.35538  Biso   1.000  O
  O45      1.0000 0.66646  0.64635  0.35528  Biso   1.000  O
  O46      1.0000 0.50440  0.64606  0.35372  Biso   1.000  O
  O47      1.0000 0.61573  0.46972  0.46721  Biso   1.000  O
  O48      1.0000 0.66676  0.35477  0.64611  Biso   1.000  O
  O49      1.0000 0.79451  0.35487  0.51815  Biso   1.000  O
  O50      1.0000 0.08458  0.97849  0.98077  Biso   1.000  O
  O51      1.0000 0.03355  0.09345  0.80187  Biso   1.000  O
  O52      1.0000 0.90581  0.09334  0.92983  Biso   1.000  O
