data_image0
_cell_length_a       18.2888
_cell_length_b       18.2888
_cell_length_c       18.2888
_cell_angle_alpha    60
_cell_angle_beta     60
_cell_angle_gamma    60

_symmetry_space_group_name_H-M    "P 1"
_symmetry_int_tables_number       1

loop_
  _symmetry_equiv_pos_as_xyz
  'x, y, z'

loop_
  _atom_site_label
  _atom_site_occupancy
  _atom_site_fract_x
  _atom_site_fract_y
  _atom_site_fract_z
  _atom_site_thermal_displace_type
  _atom_site_B_iso_or_equiv
  _atom_site_type_symbol
  Zn1      1.0000 0.29344  0.29345  0.11966  Biso   1.000  Zn
  Zn2      1.0000 0.29344  0.29345  0.29345  Biso   1.000  Zn
  Zn3      1.0000 0.11965  0.29345  0.29345  Biso   1.000  Zn
  Zn4      1.0000 0.29344  0.11966  0.29345  Biso   1.000  Zn
  Zn5      1.0000 0.70655  0.70656  0.88034  Biso   1.000  Zn
  Zn6      1.0000 0.70656  0.70655  0.70655  Biso   1.000  Zn
  Zn7      1.0000 0.70655  0.88034  0.70656  Biso   1.000  Zn
  Zn8      1.0000 0.88035  0.70655  0.70655  Biso   1.000  Zn
  H1       1.0000 0.45490  0.45490  0.93490  Biso   1.000  H
  H2       1.0000 0.45490  0.45490  0.15530  Biso   1.000  H
  H3       1.0000 0.93490  0.15530  0.45490  Biso   1.000  H
  H4       1.0000 0.15530  0.93490  0.45490  Biso   1.000  H
  H5       1.0000 0.45490  0.93490  0.15530  Biso   1.000  H
  H6       1.0000 0.45490  0.15530  0.93490  Biso   1.000  H
  H7       1.0000 0.93490  0.45490  0.45490  Biso   1.000  H
  H8       1.0000 0.15530  0.45490  0.45490  Biso   1.000  H
  H9       1.0000 0.45490  0.15530  0.45490  Biso   1.000  H
  H10      1.0000 0.45490  0.93490  0.45490  Biso   1.000  H
  H11      1.0000 0.93490  0.45490  0.15530  Biso   1.000  H
  H12      1.0000 0.15530  0.45490  0.93490  Biso   1.000  H
  H13      1.0000 0.54510  0.54510  0.06510  Biso   1.000  H
  H14      1.0000 0.54510  0.54510  0.84470  Biso   1.000  H
  H15      1.0000 0.84470  0.06510  0.54510  Biso   1.000  H
  H16      1.0000 0.06510  0.84470  0.54510  Biso   1.000  H
  H17      1.0000 0.06510  0.54510  0.84470  Biso   1.000  H
  H18      1.0000 0.84470  0.54510  0.06510  Biso   1.000  H
  H19      1.0000 0.54510  0.06510  0.54510  Biso   1.000  H
  H20      1.0000 0.54510  0.84470  0.54510  Biso   1.000  H
  H21      1.0000 0.84470  0.54510  0.54510  Biso   1.000  H
  H22      1.0000 0.06510  0.54510  0.54510  Biso   1.000  H
  H23      1.0000 0.54510  0.06510  0.84470  Biso   1.000  H
  H24      1.0000 0.54510  0.84470  0.06510  Biso   1.000  H
  C1       1.0000 0.47314  0.47314  0.96174  Biso   1.000  C
  C2       1.0000 0.47314  0.47314  0.09198  Biso   1.000  C
  C3       1.0000 0.96174  0.09198  0.47314  Biso   1.000  C
  C4       1.0000 0.09198  0.96174  0.47314  Biso   1.000  C
  C5       1.0000 0.47314  0.96174  0.09198  Biso   1.000  C
  C6       1.0000 0.47314  0.09198  0.96174  Biso   1.000  C
  C7       1.0000 0.96174  0.47314  0.47314  Biso   1.000  C
  C8       1.0000 0.09198  0.47314  0.47314  Biso   1.000  C
  C9       1.0000 0.47314  0.09198  0.47314  Biso   1.000  C
  C10      1.0000 0.47314  0.96174  0.47314  Biso   1.000  C
  C11      1.0000 0.96174  0.47314  0.09198  Biso   1.000  C
  C12      1.0000 0.09198  0.47314  0.96174  Biso   1.000  C
  C13      1.0000 0.52686  0.52686  0.03826  Biso   1.000  C
  C14      1.0000 0.52686  0.52686  0.90802  Biso   1.000  C
  C15      1.0000 0.90802  0.03826  0.52686  Biso   1.000  C
  C16      1.0000 0.03826  0.90802  0.52686  Biso   1.000  C
  C17      1.0000 0.03826  0.52686  0.90802  Biso   1.000  C
  C18      1.0000 0.90802  0.52686  0.03826  Biso   1.000  C
  C19      1.0000 0.52686  0.03826  0.52686  Biso   1.000  C
  C20      1.0000 0.52686  0.90802  0.52686  Biso   1.000  C
  C21      1.0000 0.90802  0.52686  0.52686  Biso   1.000  C
  C22      1.0000 0.03826  0.52686  0.52686  Biso   1.000  C
  C23      1.0000 0.52686  0.03826  0.90802  Biso   1.000  C
  C24      1.0000 0.52686  0.90802  0.03826  Biso   1.000  C
  C25      1.0000 0.38849  0.38849  0.11151  Biso   1.000  C
  C26      1.0000 0.44624  0.44624  0.05376  Biso   1.000  C
  C27      1.0000 0.11151  0.11151  0.38849  Biso   1.000  C
  C28      1.0000 0.05376  0.05376  0.44624  Biso   1.000  C
  C29      1.0000 0.38849  0.11151  0.11151  Biso   1.000  C
  C30      1.0000 0.44624  0.05376  0.05376  Biso   1.000  C
  C31      1.0000 0.11151  0.38849  0.38849  Biso   1.000  C
  C32      1.0000 0.05376  0.44624  0.44624  Biso   1.000  C
  C33      1.0000 0.38849  0.11151  0.38849  Biso   1.000  C
  C34      1.0000 0.44624  0.05376  0.44624  Biso   1.000  C
  C35      1.0000 0.11151  0.38849  0.11151  Biso   1.000  C
  C36      1.0000 0.05376  0.44624  0.05376  Biso   1.000  C
  C37      1.0000 0.61151  0.61151  0.88849  Biso   1.000  C
  C38      1.0000 0.55376  0.55376  0.94624  Biso   1.000  C
  C39      1.0000 0.88849  0.88849  0.61151  Biso   1.000  C
  C40      1.0000 0.94624  0.94624  0.55376  Biso   1.000  C
  C41      1.0000 0.88849  0.61151  0.88849  Biso   1.000  C
  C42      1.0000 0.94624  0.55376  0.94624  Biso   1.000  C
  C43      1.0000 0.61151  0.88849  0.61151  Biso   1.000  C
  C44      1.0000 0.55376  0.94624  0.55376  Biso   1.000  C
  C45      1.0000 0.88849  0.61151  0.61151  Biso   1.000  C
  C46      1.0000 0.94624  0.55376  0.55376  Biso   1.000  C
  C47      1.0000 0.61151  0.88849  0.88849  Biso   1.000  C
  C48      1.0000 0.55376  0.94624  0.94624  Biso   1.000  C
  O1       1.0000 0.25000  0.25000  0.25000  Biso   1.000  O
  O2       1.0000 0.75000  0.75000  0.75000  Biso   1.000  O
  O3       1.0000 0.36620  0.36620  0.07286  Biso   1.000  O
  O4       1.0000 0.36620  0.36620  0.19474  Biso   1.000  O
  O5       1.0000 0.07286  0.19474  0.36620  Biso   1.000  O
  O6       1.0000 0.19474  0.07286  0.36620  Biso   1.000  O
  O7       1.0000 0.36620  0.07286  0.19474  Biso   1.000  O
  O8       1.0000 0.36620  0.19474  0.07286  Biso   1.000  O
  O9       1.0000 0.07286  0.36620  0.36620  Biso   1.000  O
  O10      1.0000 0.19474  0.36620  0.36620  Biso   1.000  O
  O11      1.0000 0.36620  0.19474  0.36620  Biso   1.000  O
  O12      1.0000 0.36620  0.07286  0.36620  Biso   1.000  O
  O13      1.0000 0.07286  0.36620  0.19474  Biso   1.000  O
  O14      1.0000 0.19474  0.36620  0.07286  Biso   1.000  O
  O15      1.0000 0.63380  0.63380  0.92714  Biso   1.000  O
  O16      1.0000 0.63380  0.63380  0.80526  Biso   1.000  O
  O17      1.0000 0.80526  0.92714  0.63380  Biso   1.000  O
  O18      1.0000 0.92714  0.80526  0.63380  Biso   1.000  O
  O19      1.0000 0.92714  0.63380  0.80526  Biso   1.000  O
  O20      1.0000 0.80526  0.63380  0.92714  Biso   1.000  O
  O21      1.0000 0.63380  0.92714  0.63380  Biso   1.000  O
  O22      1.0000 0.63380  0.80526  0.63380  Biso   1.000  O
  O23      1.0000 0.80526  0.63380  0.63380  Biso   1.000  O
  O24      1.0000 0.92714  0.63380  0.63380  Biso   1.000  O
  O25      1.0000 0.63380  0.92714  0.80526  Biso   1.000  O
  O26      1.0000 0.63380  0.80526  0.92714  Biso   1.000  O
  Zn9      1.0000 0.57561  0.42437  0.42434  Biso   1.000  Zn
  Zn10     1.0000 0.13047  0.84892  0.02033  Biso   1.000  Zn
  Zn11     1.0000 0.13047  0.02053  0.02033  Biso   1.000  Zn
  Zn12     1.0000 0.57561  0.59598  0.42434  Biso   1.000  Zn
  Zn13     1.0000 0.57557  0.42429  0.59617  Biso   1.000  Zn
  Zn14     1.0000 0.74700  0.42454  0.42422  Biso   1.000  Zn
  Zn15     1.0000 0.13051  0.02061  0.84850  Biso   1.000  Zn
  Zn16     1.0000 0.95908  0.02036  0.02045  Biso   1.000  Zn
  H25      1.0000 0.39259  0.26949  0.79755  Biso   1.000  H
  H26      1.0000 0.39165  0.27102  0.55915  Biso   1.000  H
  H27      1.0000 0.38879  0.55921  0.27181  Biso   1.000  H
  H28      1.0000 0.31349  0.88430  0.64712  Biso   1.000  H
  H29      1.0000 0.31443  0.64640  0.88552  Biso   1.000  H
  H30      1.0000 0.31728  0.64443  0.17286  Biso   1.000  H
  H31      1.0000 0.31349  0.17541  0.64712  Biso   1.000  H
  H32      1.0000 0.31443  0.17389  0.88552  Biso   1.000  H
  H33      1.0000 0.31728  0.88570  0.17286  Biso   1.000  H
  H34      1.0000 0.39259  0.56060  0.79755  Biso   1.000  H
  H35      1.0000 0.39165  0.79850  0.55915  Biso   1.000  H
  H36      1.0000 0.38879  0.80047  0.27181  Biso   1.000  H
  C49      1.0000 0.48942  0.33723  0.60059  Biso   1.000  C
  C50      1.0000 0.42615  0.27346  0.65917  Biso   1.000  C
  C51      1.0000 0.37711  0.24833  0.77149  Biso   1.000  C
  C52      1.0000 0.37716  0.24976  0.62165  Biso   1.000  C
  C53      1.0000 0.74790  0.33783  0.33794  Biso   1.000  C
  C54      1.0000 0.37557  0.62160  0.24839  Biso   1.000  C
  C55      1.0000 0.21665  0.85182  0.84408  Biso   1.000  C
  C56      1.0000 0.27993  0.78336  0.78550  Biso   1.000  C
  C57      1.0000 0.32897  0.82161  0.67318  Biso   1.000  C
  C58      1.0000 0.32892  0.67315  0.82302  Biso   1.000  C
  C59      1.0000 0.95818  0.84828  0.10673  Biso   1.000  C
  C60      1.0000 0.33051  0.67019  0.19627  Biso   1.000  C
  C61      1.0000 0.21666  0.10767  0.84408  Biso   1.000  C
  C62      1.0000 0.27993  0.17144  0.78550  Biso   1.000  C
  C63      1.0000 0.32897  0.19657  0.67318  Biso   1.000  C
  C64      1.0000 0.32892  0.19514  0.82302  Biso   1.000  C
  C65      1.0000 0.95818  0.10707  0.10673  Biso   1.000  C
  C66      1.0000 0.33051  0.82330  0.19628  Biso   1.000  C
  C67      1.0000 0.48942  0.59308  0.60059  Biso   1.000  C
  C68      1.0000 0.42615  0.66155  0.65917  Biso   1.000  C
  C69      1.0000 0.37711  0.62329  0.77149  Biso   1.000  C
  C70      1.0000 0.37716  0.77175  0.62165  Biso   1.000  C
  C71      1.0000 0.74790  0.59662  0.33794  Biso   1.000  C
  C72      1.0000 0.37557  0.77471  0.24839  Biso   1.000  C
  C73      1.0000 0.74596  0.33694  0.60049  Biso   1.000  C
  C74      1.0000 0.48608  0.59770  0.33882  Biso   1.000  C
  C75      1.0000 0.42593  0.66176  0.27083  Biso   1.000  C
  C76      1.0000 0.96012  0.10797  0.84418  Biso   1.000  C
  C77      1.0000 0.22000  0.84720  0.10585  Biso   1.000  C
  C78      1.0000 0.28015  0.78314  0.17384  Biso   1.000  C
  O27      1.0000 0.50667  0.35329  0.64389  Biso   1.000  O
  O28      1.0000 0.50470  0.35252  0.51888  Biso   1.000  O
  O29      1.0000 0.79649  0.35311  0.35400  Biso   1.000  O
  O30      1.0000 0.66788  0.35292  0.35390  Biso   1.000  O
  O31      1.0000 0.50547  0.51718  0.35234  Biso   1.000  O
  O32      1.0000 0.19941  0.92842  0.80078  Biso   1.000  O
  O33      1.0000 0.20138  0.80069  0.92579  Biso   1.000  O
  O34      1.0000 0.90959  0.92821  0.09067  Biso   1.000  O
  O35      1.0000 0.03820  0.79931  0.09076  Biso   1.000  O
  O36      1.0000 0.20060  0.79960  0.09233  Biso   1.000  O
  O37      1.0000 0.19941  0.09161  0.80078  Biso   1.000  O
  O38      1.0000 0.20138  0.09239  0.92579  Biso   1.000  O
  O39      1.0000 0.90959  0.09179  0.09067  Biso   1.000  O
  O40      1.0000 0.03820  0.09199  0.09076  Biso   1.000  O
  O41      1.0000 0.20060  0.92772  0.09233  Biso   1.000  O
  O42      1.0000 0.50667  0.51648  0.64389  Biso   1.000  O
  O43      1.0000 0.50470  0.64422  0.51888  Biso   1.000  O
  O44      1.0000 0.79649  0.51669  0.35400  Biso   1.000  O
  O45      1.0000 0.66788  0.64560  0.35390  Biso   1.000  O
  O46      1.0000 0.50547  0.64530  0.35234  Biso   1.000  O
  O47      1.0000 0.61705  0.46859  0.46608  Biso   1.000  O
  O48      1.0000 0.66819  0.35339  0.64536  Biso   1.000  O
  O49      1.0000 0.79620  0.35350  0.51712  Biso   1.000  O
  O50      1.0000 0.08903  0.97631  0.97859  Biso   1.000  O
  O51      1.0000 0.03789  0.09151  0.79931  Biso   1.000  O
  O52      1.0000 0.90988  0.09141  0.92755  Biso   1.000  O
