data_image0
_cell_length_a       18.0449
_cell_length_b       18.0449
_cell_length_c       18.0449
_cell_angle_alpha    60
_cell_angle_beta     60
_cell_angle_gamma    60

_symmetry_space_group_name_H-M    "P 1"
_symmetry_int_tables_number       1

loop_
  _symmetry_equiv_pos_as_xyz
  'x, y, z'

loop_
  _atom_site_label
  _atom_site_occupancy
  _atom_site_fract_x
  _atom_site_fract_y
  _atom_site_fract_z
  _atom_site_thermal_displace_type
  _atom_site_B_iso_or_equiv
  _atom_site_type_symbol
  Zn1      1.0000 0.38137  0.20621  0.20621  Biso   1.000  Zn
  Zn2      1.0000 0.20621  0.38137  0.20621  Biso   1.000  Zn
  Zn3      1.0000 0.20621  0.20621  0.38137  Biso   1.000  Zn
  Zn4      1.0000 0.20621  0.20621  0.20621  Biso   1.000  Zn
  Zn5      1.0000 0.79379  0.61863  0.79379  Biso   1.000  Zn
  Zn6      1.0000 0.61863  0.79379  0.79379  Biso   1.000  Zn
  Zn7      1.0000 0.79379  0.79379  0.61863  Biso   1.000  Zn
  Zn8      1.0000 0.79379  0.79379  0.79379  Biso   1.000  Zn
  C1       1.0000 0.53160  0.41760  0.02540  Biso   1.000  C
  C2       1.0000 0.41760  0.53160  0.02540  Biso   1.000  C
  C3       1.0000 0.02540  0.02540  0.53160  Biso   1.000  C
  C4       1.0000 0.02540  0.02540  0.41760  Biso   1.000  C
  C5       1.0000 0.53160  0.02540  0.02540  Biso   1.000  C
  C6       1.0000 0.41760  0.02540  0.02540  Biso   1.000  C
  C7       1.0000 0.02540  0.53160  0.41760  Biso   1.000  C
  C8       1.0000 0.02540  0.41760  0.53160  Biso   1.000  C
  C9       1.0000 0.53160  0.02540  0.41760  Biso   1.000  C
  C10      1.0000 0.41760  0.02540  0.53160  Biso   1.000  C
  C11      1.0000 0.02540  0.41760  0.02540  Biso   1.000  C
  C12      1.0000 0.02540  0.53160  0.02540  Biso   1.000  C
  C13      1.0000 0.58240  0.46840  0.97460  Biso   1.000  C
  C14      1.0000 0.46840  0.58240  0.97460  Biso   1.000  C
  C15      1.0000 0.97460  0.97460  0.46840  Biso   1.000  C
  C16      1.0000 0.97460  0.97460  0.58240  Biso   1.000  C
  C17      1.0000 0.97460  0.46840  0.97460  Biso   1.000  C
  C18      1.0000 0.97460  0.58240  0.97460  Biso   1.000  C
  C19      1.0000 0.46840  0.97460  0.58240  Biso   1.000  C
  C20      1.0000 0.58240  0.97460  0.46840  Biso   1.000  C
  C21      1.0000 0.97460  0.46840  0.58240  Biso   1.000  C
  C22      1.0000 0.97460  0.58240  0.46840  Biso   1.000  C
  C23      1.0000 0.58240  0.97460  0.97460  Biso   1.000  C
  C24      1.0000 0.46840  0.97460  0.97460  Biso   1.000  C
  C25      1.0000 0.44560  0.44560  0.05440  Biso   1.000  C
  C26      1.0000 0.38970  0.38970  0.11030  Biso   1.000  C
  C27      1.0000 0.05440  0.05440  0.44560  Biso   1.000  C
  C28      1.0000 0.11030  0.11030  0.38970  Biso   1.000  C
  C29      1.0000 0.44560  0.05440  0.05440  Biso   1.000  C
  C30      1.0000 0.38970  0.11030  0.11030  Biso   1.000  C
  C31      1.0000 0.05440  0.44560  0.44560  Biso   1.000  C
  C32      1.0000 0.11030  0.38970  0.38970  Biso   1.000  C
  C33      1.0000 0.44560  0.05440  0.44560  Biso   1.000  C
  C34      1.0000 0.38970  0.11030  0.38970  Biso   1.000  C
  C35      1.0000 0.05440  0.44560  0.05440  Biso   1.000  C
  C36      1.0000 0.11030  0.38970  0.11030  Biso   1.000  C
  C37      1.0000 0.55440  0.55440  0.94560  Biso   1.000  C
  C38      1.0000 0.61030  0.61030  0.88970  Biso   1.000  C
  C39      1.0000 0.94560  0.94560  0.55440  Biso   1.000  C
  C40      1.0000 0.88970  0.88970  0.61030  Biso   1.000  C
  C41      1.0000 0.94560  0.55440  0.94560  Biso   1.000  C
  C42      1.0000 0.88970  0.61030  0.88970  Biso   1.000  C
  C43      1.0000 0.55440  0.94560  0.55440  Biso   1.000  C
  C44      1.0000 0.61030  0.88970  0.61030  Biso   1.000  C
  C45      1.0000 0.94560  0.55440  0.55440  Biso   1.000  C
  C46      1.0000 0.88970  0.61030  0.61030  Biso   1.000  C
  C47      1.0000 0.55440  0.94560  0.94560  Biso   1.000  C
  C48      1.0000 0.61030  0.88970  0.88970  Biso   1.000  C
  O1       1.0000 0.25000  0.25000  0.25000  Biso   1.000  O
  O2       1.0000 0.75000  0.75000  0.75000  Biso   1.000  O
  O3       1.0000 0.42550  0.30590  0.13430  Biso   1.000  O
  O4       1.0000 0.30590  0.42550  0.13430  Biso   1.000  O
  O5       1.0000 0.13430  0.13430  0.42550  Biso   1.000  O
  O6       1.0000 0.13430  0.13430  0.30590  Biso   1.000  O
  O7       1.0000 0.42550  0.13430  0.13430  Biso   1.000  O
  O8       1.0000 0.30590  0.13430  0.13430  Biso   1.000  O
  O9       1.0000 0.13430  0.42550  0.30590  Biso   1.000  O
  O10      1.0000 0.13430  0.30590  0.42550  Biso   1.000  O
  O11      1.0000 0.42550  0.13430  0.30590  Biso   1.000  O
  O12      1.0000 0.30590  0.13430  0.42550  Biso   1.000  O
  O13      1.0000 0.13430  0.30590  0.13430  Biso   1.000  O
  O14      1.0000 0.13430  0.42550  0.13430  Biso   1.000  O
  O15      1.0000 0.69410  0.57450  0.86570  Biso   1.000  O
  O16      1.0000 0.57450  0.69410  0.86570  Biso   1.000  O
  O17      1.0000 0.86570  0.86570  0.57450  Biso   1.000  O
  O18      1.0000 0.86570  0.86570  0.69410  Biso   1.000  O
  O19      1.0000 0.86570  0.57450  0.86570  Biso   1.000  O
  O20      1.0000 0.86570  0.69410  0.86570  Biso   1.000  O
  O21      1.0000 0.57450  0.86570  0.69410  Biso   1.000  O
  O22      1.0000 0.69410  0.86570  0.57450  Biso   1.000  O
  O23      1.0000 0.86570  0.57450  0.69410  Biso   1.000  O
  O24      1.0000 0.86570  0.69410  0.57450  Biso   1.000  O
  O25      1.0000 0.69410  0.86570  0.86570  Biso   1.000  O
  O26      1.0000 0.57450  0.86570  0.86570  Biso   1.000  O
  H1       1.0000 0.56398  0.34055  0.04774  Biso   1.000  H
  H2       1.0000 0.34055  0.56398  0.04774  Biso   1.000  H
  H3       1.0000 0.04774  0.04774  0.56398  Biso   1.000  H
  H4       1.0000 0.04774  0.04774  0.34055  Biso   1.000  H
  H5       1.0000 0.34055  0.04774  0.04774  Biso   1.000  H
  H6       1.0000 0.04774  0.56398  0.34055  Biso   1.000  H
  H7       1.0000 0.04774  0.34055  0.56398  Biso   1.000  H
  H8       1.0000 0.56398  0.04774  0.34055  Biso   1.000  H
  H9       1.0000 0.34055  0.04774  0.56398  Biso   1.000  H
  H10      1.0000 0.04774  0.34055  0.04774  Biso   1.000  H
  H11      1.0000 0.04774  0.56398  0.04774  Biso   1.000  H
  H12      1.0000 0.65945  0.43602  0.95226  Biso   1.000  H
  H13      1.0000 0.43602  0.65945  0.95226  Biso   1.000  H
  H14      1.0000 0.95226  0.95226  0.43602  Biso   1.000  H
  H15      1.0000 0.95226  0.95226  0.65945  Biso   1.000  H
  H16      1.0000 0.95226  0.43602  0.95226  Biso   1.000  H
  H17      1.0000 0.95226  0.65945  0.95226  Biso   1.000  H
  H18      1.0000 0.43602  0.95226  0.65945  Biso   1.000  H
  H19      1.0000 0.65945  0.95226  0.43602  Biso   1.000  H
  H20      1.0000 0.95226  0.65945  0.43602  Biso   1.000  H
  H21      1.0000 0.65945  0.95226  0.95226  Biso   1.000  H
  H22      1.0000 0.43602  0.95226  0.95226  Biso   1.000  H
  H23      1.0000 0.95226  0.43602  0.65945  Biso   1.000  H
  H24      1.0000 0.56398  0.04774  0.04774  Biso   1.000  H
  Zn9      1.0000 0.91009  0.75374  0.44223  Biso   1.000  Zn
  Zn10     1.0000 0.08807  0.75374  0.26425  Biso   1.000  Zn
  Zn11     1.0000 0.91009  0.75374  0.26425  Biso   1.000  Zn
  Zn12     1.0000 0.91009  0.93172  0.26425  Biso   1.000  Zn
  Zn13     1.0000 0.53100  0.33209  0.66462  Biso   1.000  Zn
  Zn14     1.0000 0.35302  0.33209  0.84260  Biso   1.000  Zn
  Zn15     1.0000 0.53100  0.15411  0.84260  Biso   1.000  Zn
  Zn16     1.0000 0.53100  0.33209  0.84260  Biso   1.000  Zn
  H25      1.0000 0.07636  0.58785  0.60774  Biso   1.000  H
  H26      1.0000 0.27486  0.58785  0.40924  Biso   1.000  H
  H27      1.0000 0.76548  0.89873  0.09836  Biso   1.000  H
  H28      1.0000 0.76548  0.09723  0.09836  Biso   1.000  H
  H29      1.0000 0.76548  0.09723  0.40924  Biso   1.000  H
  H30      1.0000 0.76548  0.89873  0.60774  Biso   1.000  H
  H31      1.0000 0.07636  0.58785  0.09836  Biso   1.000  H
  H32      1.0000 0.27486  0.58785  0.09836  Biso   1.000  H
  H33      1.0000 0.27486  0.89873  0.09836  Biso   1.000  H
  H34      1.0000 0.07636  0.09723  0.09836  Biso   1.000  H
  H35      1.0000 0.76548  0.58785  0.40924  Biso   1.000  H
  H36      1.0000 0.76548  0.58785  0.60774  Biso   1.000  H
  H37      1.0000 0.36473  0.49798  0.49911  Biso   1.000  H
  H38      1.0000 0.16623  0.49798  0.69761  Biso   1.000  H
  H39      1.0000 0.67561  0.98860  0.00849  Biso   1.000  H
  H40      1.0000 0.67561  0.18710  0.00849  Biso   1.000  H
  H41      1.0000 0.67561  0.49798  0.69761  Biso   1.000  H
  H42      1.0000 0.67561  0.49798  0.49911  Biso   1.000  H
  H43      1.0000 0.36473  0.98860  0.00849  Biso   1.000  H
  H44      1.0000 0.16623  0.18710  0.00849  Biso   1.000  H
  H45      1.0000 0.16623  0.49798  0.00849  Biso   1.000  H
  H46      1.0000 0.36473  0.49798  0.00849  Biso   1.000  H
  H47      1.0000 0.67561  0.98860  0.69761  Biso   1.000  H
  H48      1.0000 0.67561  0.18710  0.49911  Biso   1.000  H
  C49      1.0000 0.13968  0.56988  0.58037  Biso   1.000  C
  C50      1.0000 0.24749  0.56988  0.47256  Biso   1.000  C
  C51      1.0000 0.74751  0.96205  0.08039  Biso   1.000  C
  C52      1.0000 0.74751  0.06986  0.08039  Biso   1.000  C
  C53      1.0000 0.74751  0.06986  0.47256  Biso   1.000  C
  C54      1.0000 0.74751  0.96205  0.58037  Biso   1.000  C
  C55      1.0000 0.13968  0.56988  0.08039  Biso   1.000  C
  C56      1.0000 0.24749  0.56988  0.08039  Biso   1.000  C
  C57      1.0000 0.24749  0.96205  0.08039  Biso   1.000  C
  C58      1.0000 0.13968  0.06986  0.08039  Biso   1.000  C
  C59      1.0000 0.74751  0.56988  0.47256  Biso   1.000  C
  C60      1.0000 0.74751  0.56988  0.58037  Biso   1.000  C
  C61      1.0000 0.30141  0.51595  0.52648  Biso   1.000  C
  C62      1.0000 0.19360  0.51595  0.63429  Biso   1.000  C
  C63      1.0000 0.69358  0.01597  0.02646  Biso   1.000  C
  C64      1.0000 0.69358  0.12378  0.02646  Biso   1.000  C
  C65      1.0000 0.69358  0.51595  0.63429  Biso   1.000  C
  C66      1.0000 0.69358  0.51595  0.52648  Biso   1.000  C
  C67      1.0000 0.30141  0.01597  0.02646  Biso   1.000  C
  C68      1.0000 0.19360  0.12378  0.02646  Biso   1.000  C
  C69      1.0000 0.19360  0.51595  0.02646  Biso   1.000  C
  C70      1.0000 0.30141  0.51595  0.02646  Biso   1.000  C
  C71      1.0000 0.69358  0.01597  0.63429  Biso   1.000  C
  C72      1.0000 0.69358  0.12378  0.52648  Biso   1.000  C
  C73      1.0000 0.09613  0.65669  0.45030  Biso   1.000  C
  C74      1.0000 0.15506  0.59776  0.50922  Biso   1.000  C
  C75      1.0000 0.81303  0.93979  0.16720  Biso   1.000  C
  C76      1.0000 0.75411  0.99871  0.10827  Biso   1.000  C
  C77      1.0000 0.81303  0.93979  0.45030  Biso   1.000  C
  C78      1.0000 0.75411  0.99871  0.50922  Biso   1.000  C
  C79      1.0000 0.09613  0.65669  0.16720  Biso   1.000  C
  C80      1.0000 0.15506  0.59776  0.10827  Biso   1.000  C
  C81      1.0000 0.09613  0.93979  0.16720  Biso   1.000  C
  C82      1.0000 0.15506  0.99871  0.10827  Biso   1.000  C
  C83      1.0000 0.81303  0.65669  0.45030  Biso   1.000  C
  C84      1.0000 0.75411  0.59776  0.50922  Biso   1.000  C
  C85      1.0000 0.34496  0.42915  0.65656  Biso   1.000  C
  C86      1.0000 0.28603  0.48807  0.59763  Biso   1.000  C
  C87      1.0000 0.62806  0.14605  0.93965  Biso   1.000  C
  C88      1.0000 0.68698  0.08712  0.99858  Biso   1.000  C
  C89      1.0000 0.62806  0.42915  0.65656  Biso   1.000  C
  C90      1.0000 0.68698  0.48807  0.59763  Biso   1.000  C
  C91      1.0000 0.34496  0.14605  0.93965  Biso   1.000  C
  C92      1.0000 0.28603  0.08712  0.99858  Biso   1.000  C
  C93      1.0000 0.34496  0.42915  0.93965  Biso   1.000  C
  C94      1.0000 0.28603  0.48807  0.99858  Biso   1.000  C
  C95      1.0000 0.62806  0.14605  0.65656  Biso   1.000  C
  C96      1.0000 0.68698  0.08712  0.59763  Biso   1.000  C
  O27      1.0000 0.95458  0.79824  0.30875  Biso   1.000  O
  O28      1.0000 0.48651  0.28760  0.79810  Biso   1.000  O
  O29      1.0000 0.01109  0.67972  0.48928  Biso   1.000  O
  O30      1.0000 0.13512  0.67972  0.36525  Biso   1.000  O
  O31      1.0000 0.83606  0.85474  0.19023  Biso   1.000  O
  O32      1.0000 0.83606  0.97877  0.19023  Biso   1.000  O
  O33      1.0000 0.83606  0.97877  0.36525  Biso   1.000  O
  O34      1.0000 0.83606  0.85474  0.48928  Biso   1.000  O
  O35      1.0000 0.01109  0.67972  0.19023  Biso   1.000  O
  O36      1.0000 0.13512  0.67972  0.19023  Biso   1.000  O
  O37      1.0000 0.13512  0.85474  0.19023  Biso   1.000  O
  O38      1.0000 0.01109  0.97877  0.19023  Biso   1.000  O
  O39      1.0000 0.83606  0.67972  0.36525  Biso   1.000  O
  O40      1.0000 0.83606  0.67972  0.48928  Biso   1.000  O
  O41      1.0000 0.43000  0.40612  0.61757  Biso   1.000  O
  O42      1.0000 0.30597  0.40612  0.74160  Biso   1.000  O
  O43      1.0000 0.60503  0.10706  0.91662  Biso   1.000  O
  O44      1.0000 0.60503  0.23109  0.91662  Biso   1.000  O
  O45      1.0000 0.60503  0.40612  0.74160  Biso   1.000  O
  O46      1.0000 0.60503  0.40612  0.61757  Biso   1.000  O
  O47      1.0000 0.43000  0.10706  0.91662  Biso   1.000  O
  O48      1.0000 0.30597  0.23109  0.91662  Biso   1.000  O
  O49      1.0000 0.30597  0.40612  0.91662  Biso   1.000  O
  O50      1.0000 0.43000  0.40612  0.91662  Biso   1.000  O
  O51      1.0000 0.60503  0.10706  0.74160  Biso   1.000  O
  O52      1.0000 0.60503  0.23109  0.61757  Biso   1.000  O
