data_image0
_cell_length_a       18.0703
_cell_length_b       18.0703
_cell_length_c       18.0703
_cell_angle_alpha    60
_cell_angle_beta     60
_cell_angle_gamma    60

_symmetry_space_group_name_H-M    "P 1"
_symmetry_int_tables_number       1

loop_
  _symmetry_equiv_pos_as_xyz
  'x, y, z'

loop_
  _atom_site_label
  _atom_site_occupancy
  _atom_site_fract_x
  _atom_site_fract_y
  _atom_site_fract_z
  _atom_site_thermal_displace_type
  _atom_site_B_iso_or_equiv
  _atom_site_type_symbol
  Zn1      1.0000 0.29350  0.29350  0.29350  Biso   1.000  Zn
  Zn2      1.0000 0.29350  0.29350  0.11950  Biso   1.000  Zn
  Zn3      1.0000 0.29350  0.11950  0.29350  Biso   1.000  Zn
  Zn4      1.0000 0.11950  0.29350  0.29350  Biso   1.000  Zn
  Zn5      1.0000 0.70650  0.70650  0.70650  Biso   1.000  Zn
  Zn6      1.0000 0.70650  0.70650  0.88050  Biso   1.000  Zn
  Zn7      1.0000 0.88050  0.70650  0.70650  Biso   1.000  Zn
  Zn8      1.0000 0.70650  0.88050  0.70650  Biso   1.000  Zn
  C1       1.0000 0.47340  0.47340  0.96080  Biso   1.000  C
  C2       1.0000 0.47340  0.47340  0.09240  Biso   1.000  C
  C3       1.0000 0.96080  0.09240  0.47340  Biso   1.000  C
  C4       1.0000 0.09240  0.96080  0.47340  Biso   1.000  C
  C5       1.0000 0.47340  0.96080  0.09240  Biso   1.000  C
  C6       1.0000 0.47340  0.09240  0.96080  Biso   1.000  C
  C7       1.0000 0.96080  0.47340  0.47340  Biso   1.000  C
  C8       1.0000 0.09240  0.47340  0.47340  Biso   1.000  C
  C9       1.0000 0.47340  0.09240  0.47340  Biso   1.000  C
  C10      1.0000 0.47340  0.96080  0.47340  Biso   1.000  C
  C11      1.0000 0.96080  0.47340  0.09240  Biso   1.000  C
  C12      1.0000 0.09240  0.47340  0.96080  Biso   1.000  C
  C13      1.0000 0.52660  0.52660  0.03920  Biso   1.000  C
  C14      1.0000 0.52660  0.52660  0.90760  Biso   1.000  C
  C15      1.0000 0.90760  0.03920  0.52660  Biso   1.000  C
  C16      1.0000 0.03920  0.90760  0.52660  Biso   1.000  C
  C17      1.0000 0.03920  0.52660  0.90760  Biso   1.000  C
  C18      1.0000 0.90760  0.52660  0.03920  Biso   1.000  C
  C19      1.0000 0.52660  0.03920  0.52660  Biso   1.000  C
  C20      1.0000 0.52660  0.90760  0.52660  Biso   1.000  C
  C21      1.0000 0.90760  0.52660  0.52660  Biso   1.000  C
  C22      1.0000 0.03920  0.52660  0.52660  Biso   1.000  C
  C23      1.0000 0.52660  0.03920  0.90760  Biso   1.000  C
  C24      1.0000 0.52660  0.90760  0.03920  Biso   1.000  C
  C25      1.0000 0.38820  0.38820  0.11180  Biso   1.000  C
  C26      1.0000 0.44590  0.44590  0.05410  Biso   1.000  C
  C27      1.0000 0.11180  0.11180  0.38820  Biso   1.000  C
  C28      1.0000 0.05410  0.05410  0.44590  Biso   1.000  C
  C29      1.0000 0.38820  0.11180  0.11180  Biso   1.000  C
  C30      1.0000 0.44590  0.05410  0.05410  Biso   1.000  C
  C31      1.0000 0.11180  0.38820  0.38820  Biso   1.000  C
  C32      1.0000 0.05410  0.44590  0.44590  Biso   1.000  C
  C33      1.0000 0.38820  0.11180  0.38820  Biso   1.000  C
  C34      1.0000 0.44590  0.05410  0.44590  Biso   1.000  C
  C35      1.0000 0.11180  0.38820  0.11180  Biso   1.000  C
  C36      1.0000 0.05410  0.44590  0.05410  Biso   1.000  C
  C37      1.0000 0.61180  0.61180  0.88820  Biso   1.000  C
  C38      1.0000 0.55410  0.55410  0.94590  Biso   1.000  C
  C39      1.0000 0.88820  0.88820  0.61180  Biso   1.000  C
  C40      1.0000 0.94590  0.94590  0.55410  Biso   1.000  C
  C41      1.0000 0.88820  0.61180  0.88820  Biso   1.000  C
  C42      1.0000 0.94590  0.55410  0.94590  Biso   1.000  C
  C43      1.0000 0.61180  0.88820  0.61180  Biso   1.000  C
  C44      1.0000 0.55410  0.94590  0.55410  Biso   1.000  C
  C45      1.0000 0.88820  0.61180  0.61180  Biso   1.000  C
  C46      1.0000 0.94590  0.55410  0.55410  Biso   1.000  C
  C47      1.0000 0.61180  0.88820  0.88820  Biso   1.000  C
  C48      1.0000 0.55410  0.94590  0.94590  Biso   1.000  C
  O1       1.0000 0.25000  0.25000  0.25000  Biso   1.000  O
  O2       1.0000 0.75000  0.75000  0.75000  Biso   1.000  O
  O3       1.0000 0.36569  0.36569  0.19789  Biso   1.000  O
  O4       1.0000 0.36569  0.36569  0.07073  Biso   1.000  O
  O5       1.0000 0.19789  0.07073  0.36569  Biso   1.000  O
  O6       1.0000 0.07073  0.19789  0.36569  Biso   1.000  O
  O7       1.0000 0.36569  0.19789  0.07073  Biso   1.000  O
  O8       1.0000 0.36569  0.07073  0.19789  Biso   1.000  O
  O9       1.0000 0.19789  0.36569  0.36569  Biso   1.000  O
  O10      1.0000 0.07073  0.36569  0.36569  Biso   1.000  O
  O11      1.0000 0.36569  0.07073  0.36569  Biso   1.000  O
  O12      1.0000 0.36569  0.19789  0.36569  Biso   1.000  O
  O13      1.0000 0.19789  0.36569  0.07073  Biso   1.000  O
  O14      1.0000 0.07073  0.36569  0.19789  Biso   1.000  O
  O15      1.0000 0.63431  0.63431  0.80211  Biso   1.000  O
  O16      1.0000 0.63431  0.63431  0.92927  Biso   1.000  O
  O17      1.0000 0.92927  0.80211  0.63431  Biso   1.000  O
  O18      1.0000 0.80211  0.92927  0.63431  Biso   1.000  O
  O19      1.0000 0.80211  0.63431  0.92927  Biso   1.000  O
  O20      1.0000 0.92927  0.63431  0.80211  Biso   1.000  O
  O21      1.0000 0.63431  0.80211  0.63431  Biso   1.000  O
  O22      1.0000 0.63431  0.92927  0.63431  Biso   1.000  O
  O23      1.0000 0.92927  0.63431  0.63431  Biso   1.000  O
  O24      1.0000 0.80211  0.63431  0.63431  Biso   1.000  O
  O25      1.0000 0.63431  0.80211  0.92927  Biso   1.000  O
  O26      1.0000 0.63431  0.92927  0.80211  Biso   1.000  O
  H1       1.0000 0.45110  0.45110  0.92847  Biso   1.000  H
  H2       1.0000 0.45110  0.45110  0.16934  Biso   1.000  H
  H3       1.0000 0.92847  0.16934  0.45110  Biso   1.000  H
  H4       1.0000 0.16934  0.92847  0.45110  Biso   1.000  H
  H5       1.0000 0.45110  0.92847  0.16934  Biso   1.000  H
  H6       1.0000 0.45110  0.16934  0.92847  Biso   1.000  H
  H7       1.0000 0.92847  0.45110  0.45110  Biso   1.000  H
  H8       1.0000 0.16934  0.45110  0.45110  Biso   1.000  H
  H9       1.0000 0.45110  0.16934  0.45110  Biso   1.000  H
  H10      1.0000 0.45110  0.92847  0.45110  Biso   1.000  H
  H11      1.0000 0.92847  0.45110  0.16934  Biso   1.000  H
  H12      1.0000 0.16934  0.45110  0.92847  Biso   1.000  H
  H13      1.0000 0.54890  0.54890  0.07153  Biso   1.000  H
  H14      1.0000 0.54890  0.54890  0.83066  Biso   1.000  H
  H15      1.0000 0.83066  0.07153  0.54890  Biso   1.000  H
  H16      1.0000 0.07153  0.83066  0.54890  Biso   1.000  H
  H17      1.0000 0.07153  0.54890  0.83066  Biso   1.000  H
  H18      1.0000 0.83066  0.54890  0.07153  Biso   1.000  H
  H19      1.0000 0.54890  0.07153  0.54890  Biso   1.000  H
  H20      1.0000 0.54890  0.83066  0.54890  Biso   1.000  H
  H21      1.0000 0.83066  0.54890  0.54890  Biso   1.000  H
  H22      1.0000 0.07153  0.54890  0.54890  Biso   1.000  H
  H23      1.0000 0.54890  0.07153  0.83066  Biso   1.000  H
  H24      1.0000 0.54890  0.83066  0.07153  Biso   1.000  H
  Zn9      1.0000 0.63462  0.44395  0.41077  Biso   1.000  Zn
  Zn10     1.0000 0.03536  0.84468  0.01009  Biso   1.000  Zn
  Zn11     1.0000 0.85749  0.02255  0.01009  Biso   1.000  Zn
  Zn12     1.0000 0.45674  0.62182  0.41077  Biso   1.000  Zn
  Zn13     1.0000 0.45654  0.44374  0.58881  Biso   1.000  Zn
  Zn14     1.0000 0.45667  0.44388  0.41056  Biso   1.000  Zn
  Zn15     1.0000 0.03556  0.02275  0.83205  Biso   1.000  Zn
  Zn16     1.0000 0.03543  0.02262  0.01030  Biso   1.000  Zn
  H25      1.0000 0.29075  0.78826  0.55504  Biso   1.000  H
  H26      1.0000 0.28757  0.58795  0.77328  Biso   1.000  H
  H27      1.0000 0.29444  0.78624  0.24639  Biso   1.000  H
  H28      1.0000 0.29392  0.58676  0.24098  Biso   1.000  H
  H29      1.0000 0.80018  0.58737  0.24822  Biso   1.000  H
  H30      1.0000 0.69103  0.18856  0.86583  Biso   1.000  H
  H31      1.0000 0.89136  0.19173  0.64758  Biso   1.000  H
  H32      1.0000 0.69305  0.18487  0.17447  Biso   1.000  H
  H33      1.0000 0.89255  0.18538  0.17988  Biso   1.000  H
  H34      1.0000 0.89193  0.67914  0.17264  Biso   1.000  H
  H35      1.0000 0.20136  0.67823  0.86583  Biso   1.000  H
  H36      1.0000 0.20454  0.87854  0.64758  Biso   1.000  H
  H37      1.0000 0.19767  0.68026  0.17447  Biso   1.000  H
  H38      1.0000 0.19819  0.87974  0.17988  Biso   1.000  H
  H39      1.0000 0.69193  0.87913  0.17264  Biso   1.000  H
  H40      1.0000 0.80108  0.27794  0.55504  Biso   1.000  H
  H41      1.0000 0.60075  0.27477  0.77328  Biso   1.000  H
  H42      1.0000 0.79906  0.28163  0.24639  Biso   1.000  H
  H43      1.0000 0.59955  0.28112  0.24098  Biso   1.000  H
  H44      1.0000 0.60017  0.78736  0.24822  Biso   1.000  H
  H45      1.0000 0.29207  0.27927  0.55432  Biso   1.000  H
  H46      1.0000 0.28930  0.27650  0.77726  Biso   1.000  H
  H47      1.0000 0.20004  0.18723  0.86654  Biso   1.000  H
  H48      1.0000 0.20280  0.19000  0.64360  Biso   1.000  H
  C49      1.0000 0.36011  0.63173  0.59452  Biso   1.000  C
  C50      1.0000 0.30012  0.68987  0.65615  Biso   1.000  C
  C51      1.0000 0.27350  0.76123  0.61860  Biso   1.000  C
  C52      1.0000 0.27165  0.65141  0.74716  Biso   1.000  C
  C53      1.0000 0.36053  0.63052  0.31230  Biso   1.000  C
  C54      1.0000 0.30351  0.68734  0.25424  Biso   1.000  C
  C55      1.0000 0.27516  0.76002  0.22853  Biso   1.000  C
  C56      1.0000 0.27474  0.65001  0.22506  Biso   1.000  C
  C57      1.0000 0.77335  0.65072  0.22833  Biso   1.000  C
  C58      1.0000 0.84758  0.11919  0.82634  Biso   1.000  C
  C59      1.0000 0.78944  0.17918  0.76471  Biso   1.000  C
  C60      1.0000 0.71806  0.20580  0.80226  Biso   1.000  C
  C61      1.0000 0.82790  0.20764  0.67370  Biso   1.000  C
  C62      1.0000 0.84879  0.11877  0.10856  Biso   1.000  C
  C63      1.0000 0.79197  0.17579  0.16662  Biso   1.000  C
  C64      1.0000 0.71926  0.20415  0.19233  Biso   1.000  C
  C65      1.0000 0.82930  0.20456  0.19580  Biso   1.000  C
  C66      1.0000 0.82858  0.70596  0.19253  Biso   1.000  C
  C67      1.0000 0.13200  0.83477  0.82634  Biso   1.000  C
  C68      1.0000 0.19199  0.77662  0.76471  Biso   1.000  C
  C69      1.0000 0.21860  0.70527  0.80226  Biso   1.000  C
  C70      1.0000 0.22045  0.81509  0.67370  Biso   1.000  C
  C71      1.0000 0.13158  0.83598  0.10856  Biso   1.000  C
  C72      1.0000 0.18860  0.77915  0.16662  Biso   1.000  C
  C73      1.0000 0.21695  0.70647  0.19233  Biso   1.000  C
  C74      1.0000 0.21736  0.81649  0.19580  Biso   1.000  C
  C75      1.0000 0.71876  0.81578  0.19253  Biso   1.000  C
  C76      1.0000 0.64452  0.34731  0.59452  Biso   1.000  C
  C77      1.0000 0.70267  0.28732  0.65615  Biso   1.000  C
  C78      1.0000 0.77404  0.26070  0.61860  Biso   1.000  C
  C79      1.0000 0.66420  0.25885  0.74716  Biso   1.000  C
  C80      1.0000 0.64331  0.34773  0.31230  Biso   1.000  C
  C81      1.0000 0.70014  0.29071  0.25424  Biso   1.000  C
  C82      1.0000 0.77284  0.26235  0.22853  Biso   1.000  C
  C83      1.0000 0.66280  0.26194  0.22506  Biso   1.000  C
  C84      1.0000 0.66352  0.76053  0.22833  Biso   1.000  C
  C85      1.0000 0.35837  0.34557  0.60126  Biso   1.000  C
  C86      1.0000 0.30114  0.28834  0.65533  Biso   1.000  C
  C87      1.0000 0.27401  0.26121  0.61758  Biso   1.000  C
  C88      1.0000 0.27155  0.25875  0.74920  Biso   1.000  C
  C89      1.0000 0.64035  0.62756  0.31761  Biso   1.000  C
  C90      1.0000 0.70177  0.68898  0.25435  Biso   1.000  C
  C91      1.0000 0.13373  0.12092  0.81960  Biso   1.000  C
  C92      1.0000 0.19096  0.17816  0.76553  Biso   1.000  C
  C93      1.0000 0.21810  0.20529  0.80328  Biso   1.000  C
  C94      1.0000 0.22055  0.20775  0.67166  Biso   1.000  C
  C95      1.0000 0.85175  0.83894  0.10325  Biso   1.000  C
  C96      1.0000 0.79034  0.77752  0.16651  Biso   1.000  C
  O27      1.0000 0.38061  0.54430  0.63891  Biso   1.000  O
  O28      1.0000 0.38306  0.67305  0.51014  Biso   1.000  O
  O29      1.0000 0.38032  0.54319  0.33811  Biso   1.000  O
  O30      1.0000 0.38256  0.67153  0.33526  Biso   1.000  O
  O31      1.0000 0.68361  0.54289  0.33760  Biso   1.000  O
  O32      1.0000 0.93501  0.09869  0.78195  Biso   1.000  O
  O33      1.0000 0.80626  0.09623  0.91072  Biso   1.000  O
  O34      1.0000 0.93612  0.09898  0.08275  Biso   1.000  O
  O35      1.0000 0.80778  0.09673  0.08560  Biso   1.000  O
  O36      1.0000 0.93643  0.79568  0.08326  Biso   1.000  O
  O37      1.0000 0.11150  0.92220  0.78195  Biso   1.000  O
  O38      1.0000 0.10904  0.79345  0.91072  Biso   1.000  O
  O39      1.0000 0.11179  0.92331  0.08275  Biso   1.000  O
  O40      1.0000 0.10954  0.79497  0.08560  Biso   1.000  O
  O41      1.0000 0.80850  0.92361  0.08326  Biso   1.000  O
  O42      1.0000 0.55709  0.36781  0.63891  Biso   1.000  O
  O43      1.0000 0.68584  0.37027  0.51014  Biso   1.000  O
  O44      1.0000 0.55599  0.36752  0.33811  Biso   1.000  O
  O45      1.0000 0.68432  0.36977  0.33526  Biso   1.000  O
  O46      1.0000 0.55568  0.67081  0.33760  Biso   1.000  O
  O47      1.0000 0.50100  0.48820  0.45555  Biso   1.000  O
  O48      1.0000 0.38204  0.36924  0.63789  Biso   1.000  O
  O49      1.0000 0.38041  0.36761  0.51494  Biso   1.000  O
  O50      1.0000 0.99111  0.97830  0.96531  Biso   1.000  O
  O51      1.0000 0.11007  0.09726  0.78298  Biso   1.000  O
  O52      1.0000 0.11169  0.09888  0.90592  Biso   1.000  O
