data_image0
_cell_length_a       18.0703
_cell_length_b       18.0703
_cell_length_c       18.0703
_cell_angle_alpha    60
_cell_angle_beta     60
_cell_angle_gamma    60

_symmetry_space_group_name_H-M    "P 1"
_symmetry_int_tables_number       1

loop_
  _symmetry_equiv_pos_as_xyz
  'x, y, z'

loop_
  _atom_site_label
  _atom_site_occupancy
  _atom_site_fract_x
  _atom_site_fract_y
  _atom_site_fract_z
  _atom_site_thermal_displace_type
  _atom_site_B_iso_or_equiv
  _atom_site_type_symbol
  C1       1.0000 0.29350  0.29350  0.29350  Biso   1.000  C
  C2       1.0000 0.29350  0.29350  0.11950  Biso   1.000  C
  C3       1.0000 0.29350  0.11950  0.29350  Biso   1.000  C
  C4       1.0000 0.11950  0.29350  0.29350  Biso   1.000  C
  C5       1.0000 0.70650  0.70650  0.70650  Biso   1.000  C
  C6       1.0000 0.70650  0.70650  0.88050  Biso   1.000  C
  C7       1.0000 0.88050  0.70650  0.70650  Biso   1.000  C
  C8       1.0000 0.70650  0.88050  0.70650  Biso   1.000  C
  C9       1.0000 0.47340  0.47340  0.96080  Biso   1.000  C
  C10      1.0000 0.47340  0.47340  0.09240  Biso   1.000  C
  C11      1.0000 0.96080  0.09240  0.47340  Biso   1.000  C
  C12      1.0000 0.09240  0.96080  0.47340  Biso   1.000  C
  C13      1.0000 0.47340  0.96080  0.09240  Biso   1.000  C
  C14      1.0000 0.47340  0.09240  0.96080  Biso   1.000  C
  C15      1.0000 0.96080  0.47340  0.47340  Biso   1.000  C
  C16      1.0000 0.09240  0.47340  0.47340  Biso   1.000  C
  C17      1.0000 0.47340  0.09240  0.47340  Biso   1.000  C
  C18      1.0000 0.47340  0.96080  0.47340  Biso   1.000  C
  C19      1.0000 0.96080  0.47340  0.09240  Biso   1.000  C
  C20      1.0000 0.09240  0.47340  0.96080  Biso   1.000  C
  C21      1.0000 0.52660  0.52660  0.03920  Biso   1.000  C
  C22      1.0000 0.52660  0.52660  0.90760  Biso   1.000  C
  C23      1.0000 0.90760  0.03920  0.52660  Biso   1.000  C
  C24      1.0000 0.03920  0.90760  0.52660  Biso   1.000  C
  C25      1.0000 0.03920  0.52660  0.90760  Biso   1.000  C
  C26      1.0000 0.90760  0.52660  0.03920  Biso   1.000  C
  C27      1.0000 0.52660  0.03920  0.52660  Biso   1.000  C
  C28      1.0000 0.52660  0.90760  0.52660  Biso   1.000  C
  C29      1.0000 0.90760  0.52660  0.52660  Biso   1.000  C
  C30      1.0000 0.03920  0.52660  0.52660  Biso   1.000  C
  C31      1.0000 0.52660  0.03920  0.90760  Biso   1.000  C
  C32      1.0000 0.52660  0.90760  0.03920  Biso   1.000  C
  C33      1.0000 0.38820  0.38820  0.11180  Biso   1.000  C
  C34      1.0000 0.44590  0.44590  0.05410  Biso   1.000  C
  C35      1.0000 0.11180  0.11180  0.38820  Biso   1.000  C
  C36      1.0000 0.05410  0.05410  0.44590  Biso   1.000  C
  C37      1.0000 0.38820  0.11180  0.11180  Biso   1.000  C
  C38      1.0000 0.44590  0.05410  0.05410  Biso   1.000  C
  C39      1.0000 0.11180  0.38820  0.38820  Biso   1.000  C
  C40      1.0000 0.05410  0.44590  0.44590  Biso   1.000  C
  C41      1.0000 0.38820  0.11180  0.38820  Biso   1.000  C
  C42      1.0000 0.44590  0.05410  0.44590  Biso   1.000  C
  C43      1.0000 0.11180  0.38820  0.11180  Biso   1.000  C
  C44      1.0000 0.05410  0.44590  0.05410  Biso   1.000  C
  C45      1.0000 0.61180  0.61180  0.88820  Biso   1.000  C
  C46      1.0000 0.55410  0.55410  0.94590  Biso   1.000  C
  C47      1.0000 0.88820  0.88820  0.61180  Biso   1.000  C
  C48      1.0000 0.94590  0.94590  0.55410  Biso   1.000  C
  C49      1.0000 0.88820  0.61180  0.88820  Biso   1.000  C
  C50      1.0000 0.94590  0.55410  0.94590  Biso   1.000  C
  C51      1.0000 0.61180  0.88820  0.61180  Biso   1.000  C
  C52      1.0000 0.55410  0.94590  0.55410  Biso   1.000  C
  C53      1.0000 0.88820  0.61180  0.61180  Biso   1.000  C
  C54      1.0000 0.94590  0.55410  0.55410  Biso   1.000  C
  C55      1.0000 0.61180  0.88820  0.88820  Biso   1.000  C
  C56      1.0000 0.55410  0.94590  0.94590  Biso   1.000  C
  C57      1.0000 0.25000  0.25000  0.25000  Biso   1.000  C
  C58      1.0000 0.75000  0.75000  0.75000  Biso   1.000  C
  C59      1.0000 0.36569  0.36569  0.19789  Biso   1.000  C
  C60      1.0000 0.36569  0.36569  0.07073  Biso   1.000  C
  C61      1.0000 0.19789  0.07073  0.36569  Biso   1.000  C
  C62      1.0000 0.07073  0.19789  0.36569  Biso   1.000  C
  C63      1.0000 0.36569  0.19789  0.07073  Biso   1.000  C
  C64      1.0000 0.36569  0.07073  0.19789  Biso   1.000  C
  C65      1.0000 0.19789  0.36569  0.36569  Biso   1.000  C
  C66      1.0000 0.07073  0.36569  0.36569  Biso   1.000  C
  C67      1.0000 0.36569  0.07073  0.36569  Biso   1.000  C
  C68      1.0000 0.36569  0.19789  0.36569  Biso   1.000  C
  C69      1.0000 0.19789  0.36569  0.07073  Biso   1.000  C
  C70      1.0000 0.07073  0.36569  0.19789  Biso   1.000  C
  C71      1.0000 0.63431  0.63431  0.80211  Biso   1.000  C
  C72      1.0000 0.63431  0.63431  0.92927  Biso   1.000  C
  C73      1.0000 0.92927  0.80211  0.63431  Biso   1.000  C
  C74      1.0000 0.80211  0.92927  0.63431  Biso   1.000  C
  C75      1.0000 0.80211  0.63431  0.92927  Biso   1.000  C
  C76      1.0000 0.92927  0.63431  0.80211  Biso   1.000  C
  C77      1.0000 0.63431  0.80211  0.63431  Biso   1.000  C
  C78      1.0000 0.63431  0.92927  0.63431  Biso   1.000  C
  C79      1.0000 0.92927  0.63431  0.63431  Biso   1.000  C
  C80      1.0000 0.80211  0.63431  0.63431  Biso   1.000  C
  C81      1.0000 0.63431  0.80211  0.92927  Biso   1.000  C
  C82      1.0000 0.63431  0.92927  0.80211  Biso   1.000  C
  C83      1.0000 0.45110  0.45110  0.92847  Biso   1.000  C
  C84      1.0000 0.45110  0.45110  0.16934  Biso   1.000  C
  C85      1.0000 0.92847  0.16934  0.45110  Biso   1.000  C
  C86      1.0000 0.16934  0.92847  0.45110  Biso   1.000  C
  C87      1.0000 0.45110  0.92847  0.16934  Biso   1.000  C
  C88      1.0000 0.45110  0.16934  0.92847  Biso   1.000  C
  C89      1.0000 0.92847  0.45110  0.45110  Biso   1.000  C
  C90      1.0000 0.16934  0.45110  0.45110  Biso   1.000  C
  C91      1.0000 0.45110  0.16934  0.45110  Biso   1.000  C
  C92      1.0000 0.45110  0.92847  0.45110  Biso   1.000  C
  C93      1.0000 0.92847  0.45110  0.16934  Biso   1.000  C
  C94      1.0000 0.16934  0.45110  0.92847  Biso   1.000  C
  C95      1.0000 0.54890  0.54890  0.07153  Biso   1.000  C
  C96      1.0000 0.54890  0.54890  0.83066  Biso   1.000  C
  C97      1.0000 0.83066  0.07153  0.54890  Biso   1.000  C
  C98      1.0000 0.07153  0.83066  0.54890  Biso   1.000  C
  C99      1.0000 0.07153  0.54890  0.83066  Biso   1.000  C
  C100     1.0000 0.83066  0.54890  0.07153  Biso   1.000  C
  C101     1.0000 0.54890  0.07153  0.54890  Biso   1.000  C
  C102     1.0000 0.54890  0.83066  0.54890  Biso   1.000  C
  C103     1.0000 0.83066  0.54890  0.54890  Biso   1.000  C
  C104     1.0000 0.07153  0.54890  0.54890  Biso   1.000  C
  C105     1.0000 0.54890  0.07153  0.83066  Biso   1.000  C
  C106     1.0000 0.54890  0.83066  0.07153  Biso   1.000  C
  O1       1.0000 0.90897  0.75361  0.44103  Biso   1.000  O
  O2       1.0000 0.08671  0.75361  0.26329  Biso   1.000  O
  O3       1.0000 0.90897  0.75361  0.26329  Biso   1.000  O
  O4       1.0000 0.90897  0.93135  0.26329  Biso   1.000  O
  O5       1.0000 0.52866  0.33220  0.66415  Biso   1.000  O
  O6       1.0000 0.35092  0.33220  0.84189  Biso   1.000  O
  O7       1.0000 0.52866  0.15447  0.84189  Biso   1.000  O
  O8       1.0000 0.52866  0.33220  0.84189  Biso   1.000  O
  O9       1.0000 0.07366  0.58812  0.60732  Biso   1.000  O
  O10      1.0000 0.27355  0.58812  0.40743  Biso   1.000  O
  O11      1.0000 0.76403  0.89775  0.09780  Biso   1.000  O
  O12      1.0000 0.76403  0.09764  0.09780  Biso   1.000  O
  O13      1.0000 0.76403  0.09764  0.40743  Biso   1.000  O
  O14      1.0000 0.76403  0.89775  0.60732  Biso   1.000  O
  O15      1.0000 0.07366  0.58812  0.09780  Biso   1.000  O
  O16      1.0000 0.27355  0.58812  0.09780  Biso   1.000  O
  O17      1.0000 0.27355  0.89775  0.09780  Biso   1.000  O
  O18      1.0000 0.07366  0.09764  0.09780  Biso   1.000  O
  O19      1.0000 0.76403  0.58812  0.40743  Biso   1.000  O
  O20      1.0000 0.76403  0.58812  0.60732  Biso   1.000  O
  O21      1.0000 0.36397  0.49770  0.49785  Biso   1.000  O
  O22      1.0000 0.16408  0.49770  0.69774  Biso   1.000  O
  O23      1.0000 0.67361  0.98817  0.00738  Biso   1.000  O
  O24      1.0000 0.67361  0.18806  0.00738  Biso   1.000  O
  O25      1.0000 0.67361  0.49770  0.69774  Biso   1.000  O
  O26      1.0000 0.67361  0.49770  0.49785  Biso   1.000  O
  O27      1.0000 0.36397  0.98817  0.00738  Biso   1.000  O
  O28      1.0000 0.16408  0.18806  0.00738  Biso   1.000  O
  O29      1.0000 0.16408  0.49770  0.00738  Biso   1.000  O
  O30      1.0000 0.36397  0.49770  0.00738  Biso   1.000  O
  O31      1.0000 0.67361  0.98817  0.69774  Biso   1.000  O
  O32      1.0000 0.67361  0.18806  0.49785  Biso   1.000  O
  O33      1.0000 0.13698  0.57013  0.57997  Biso   1.000  O
  O34      1.0000 0.24620  0.57013  0.47075  Biso   1.000  O
  O35      1.0000 0.74605  0.96107  0.07982  Biso   1.000  O
  O36      1.0000 0.74605  0.07029  0.07982  Biso   1.000  O
  O37      1.0000 0.74605  0.07029  0.47075  Biso   1.000  O
  O38      1.0000 0.74605  0.96106  0.57997  Biso   1.000  O
  O39      1.0000 0.13698  0.57013  0.07982  Biso   1.000  O
  O40      1.0000 0.24620  0.57013  0.07982  Biso   1.000  O
  O41      1.0000 0.24620  0.96107  0.07982  Biso   1.000  O
  O42      1.0000 0.13698  0.07029  0.07982  Biso   1.000  O
  O43      1.0000 0.74605  0.57013  0.47075  Biso   1.000  O
  O44      1.0000 0.74605  0.57013  0.57997  Biso   1.000  O
  O45      1.0000 0.30066  0.51568  0.52520  Biso   1.000  O
  O46      1.0000 0.19143  0.51568  0.63443  Biso   1.000  O
  O47      1.0000 0.69159  0.01552  0.02536  Biso   1.000  O
  O48      1.0000 0.69159  0.12475  0.02536  Biso   1.000  O
  O49      1.0000 0.69159  0.51568  0.63443  Biso   1.000  O
  O50      1.0000 0.69159  0.51568  0.52520  Biso   1.000  O
  O51      1.0000 0.30066  0.01552  0.02536  Biso   1.000  O
  O52      1.0000 0.19143  0.12475  0.02536  Biso   1.000  O
  O53      1.0000 0.19143  0.51568  0.02536  Biso   1.000  O
  O54      1.0000 0.30066  0.51568  0.02536  Biso   1.000  O
  O55      1.0000 0.69159  0.01552  0.63443  Biso   1.000  O
  O56      1.0000 0.69159  0.12475  0.52520  Biso   1.000  O
  O57      1.0000 0.09496  0.65649  0.44927  Biso   1.000  O
  O58      1.0000 0.15323  0.59822  0.50755  Biso   1.000  O
  O59      1.0000 0.81186  0.93959  0.16617  Biso   1.000  O
  O60      1.0000 0.75358  0.99787  0.10790  Biso   1.000  O
  O61      1.0000 0.81186  0.93959  0.44927  Biso   1.000  O
  O62      1.0000 0.75358  0.99787  0.50755  Biso   1.000  O
  O63      1.0000 0.09496  0.65649  0.16617  Biso   1.000  O
  O64      1.0000 0.15323  0.59822  0.10790  Biso   1.000  O
  O65      1.0000 0.09496  0.93959  0.16617  Biso   1.000  O
  O66      1.0000 0.15323  0.99787  0.10790  Biso   1.000  O
  O67      1.0000 0.81186  0.65649  0.44927  Biso   1.000  O
  O68      1.0000 0.75358  0.59822  0.50755  Biso   1.000  O
  O69      1.0000 0.34268  0.42932  0.65590  Biso   1.000  O
  O70      1.0000 0.28440  0.48759  0.59763  Biso   1.000  O
  O71      1.0000 0.62578  0.14622  0.93900  Biso   1.000  O
  O72      1.0000 0.68405  0.08795  0.99727  Biso   1.000  O
  O73      1.0000 0.62578  0.42932  0.65590  Biso   1.000  O
  O74      1.0000 0.68405  0.48759  0.59763  Biso   1.000  O
  O75      1.0000 0.34268  0.14622  0.93900  Biso   1.000  O
  O76      1.0000 0.28440  0.08795  0.99727  Biso   1.000  O
  O77      1.0000 0.34268  0.42932  0.93900  Biso   1.000  O
  O78      1.0000 0.28440  0.48759  0.99727  Biso   1.000  O
  O79      1.0000 0.62578  0.14622  0.65590  Biso   1.000  O
  O80      1.0000 0.68405  0.08795  0.59763  Biso   1.000  O
  O81      1.0000 0.95341  0.79804  0.30772  Biso   1.000  O
  O82      1.0000 0.48423  0.28777  0.79745  Biso   1.000  O
  O83      1.0000 0.00983  0.67953  0.48833  Biso   1.000  O
  O84      1.0000 0.13401  0.67953  0.36415  Biso   1.000  O
  O85      1.0000 0.83489  0.85447  0.18921  Biso   1.000  O
  O86      1.0000 0.83489  0.97865  0.18921  Biso   1.000  O
  O87      1.0000 0.83489  0.97865  0.36415  Biso   1.000  O
  O88      1.0000 0.83489  0.85447  0.48833  Biso   1.000  O
  O89      1.0000 0.00983  0.67953  0.18921  Biso   1.000  O
  O90      1.0000 0.13401  0.67953  0.18921  Biso   1.000  O
  O91      1.0000 0.13401  0.85447  0.18921  Biso   1.000  O
  O92      1.0000 0.00983  0.97865  0.18921  Biso   1.000  O
  O93      1.0000 0.83489  0.67953  0.36415  Biso   1.000  O
  O94      1.0000 0.83489  0.67953  0.48833  Biso   1.000  O
  O95      1.0000 0.42780  0.40629  0.61684  Biso   1.000  O
  O96      1.0000 0.30362  0.40629  0.74103  Biso   1.000  O
  O97      1.0000 0.60274  0.10716  0.91597  Biso   1.000  O
  O98      1.0000 0.60274  0.23134  0.91597  Biso   1.000  O
  O99      1.0000 0.60274  0.40629  0.74103  Biso   1.000  O
  O100     1.0000 0.60274  0.40629  0.61684  Biso   1.000  O
  O101     1.0000 0.42780  0.10716  0.91597  Biso   1.000  O
  O102     1.0000 0.30362  0.23134  0.91597  Biso   1.000  O
  O103     1.0000 0.30362  0.40629  0.91597  Biso   1.000  O
  O104     1.0000 0.42780  0.40629  0.91597  Biso   1.000  O
  O105     1.0000 0.60274  0.10716  0.74103  Biso   1.000  O
  O106     1.0000 0.60274  0.23134  0.61684  Biso   1.000  O
