data_image0
_cell_length_a       18.0703
_cell_length_b       18.0703
_cell_length_c       18.0703
_cell_angle_alpha    60
_cell_angle_beta     60
_cell_angle_gamma    60

_symmetry_space_group_name_H-M    "P 1"
_symmetry_int_tables_number       1

loop_
  _symmetry_equiv_pos_as_xyz
  'x, y, z'

loop_
  _atom_site_label
  _atom_site_occupancy
  _atom_site_fract_x
  _atom_site_fract_y
  _atom_site_fract_z
  _atom_site_thermal_displace_type
  _atom_site_B_iso_or_equiv
  _atom_site_type_symbol
  C1       1.0000 0.29350  0.29350  0.29350  Biso   1.000  C
  C2       1.0000 0.29350  0.29350  0.11950  Biso   1.000  C
  C3       1.0000 0.29350  0.11950  0.29350  Biso   1.000  C
  C4       1.0000 0.11950  0.29350  0.29350  Biso   1.000  C
  C5       1.0000 0.70650  0.70650  0.70650  Biso   1.000  C
  C6       1.0000 0.70650  0.70650  0.88050  Biso   1.000  C
  C7       1.0000 0.88050  0.70650  0.70650  Biso   1.000  C
  C8       1.0000 0.70650  0.88050  0.70650  Biso   1.000  C
  C9       1.0000 0.47340  0.47340  0.96080  Biso   1.000  C
  C10      1.0000 0.47340  0.47340  0.09240  Biso   1.000  C
  C11      1.0000 0.96080  0.09240  0.47340  Biso   1.000  C
  C12      1.0000 0.09240  0.96080  0.47340  Biso   1.000  C
  C13      1.0000 0.47340  0.96080  0.09240  Biso   1.000  C
  C14      1.0000 0.47340  0.09240  0.96080  Biso   1.000  C
  C15      1.0000 0.96080  0.47340  0.47340  Biso   1.000  C
  C16      1.0000 0.09240  0.47340  0.47340  Biso   1.000  C
  C17      1.0000 0.47340  0.09240  0.47340  Biso   1.000  C
  C18      1.0000 0.47340  0.96080  0.47340  Biso   1.000  C
  C19      1.0000 0.96080  0.47340  0.09240  Biso   1.000  C
  C20      1.0000 0.09240  0.47340  0.96080  Biso   1.000  C
  C21      1.0000 0.52660  0.52660  0.03920  Biso   1.000  C
  C22      1.0000 0.52660  0.52660  0.90760  Biso   1.000  C
  C23      1.0000 0.90760  0.03920  0.52660  Biso   1.000  C
  C24      1.0000 0.03920  0.90760  0.52660  Biso   1.000  C
  C25      1.0000 0.03920  0.52660  0.90760  Biso   1.000  C
  C26      1.0000 0.90760  0.52660  0.03920  Biso   1.000  C
  C27      1.0000 0.52660  0.03920  0.52660  Biso   1.000  C
  C28      1.0000 0.52660  0.90760  0.52660  Biso   1.000  C
  C29      1.0000 0.90760  0.52660  0.52660  Biso   1.000  C
  C30      1.0000 0.03920  0.52660  0.52660  Biso   1.000  C
  C31      1.0000 0.52660  0.03920  0.90760  Biso   1.000  C
  C32      1.0000 0.52660  0.90760  0.03920  Biso   1.000  C
  C33      1.0000 0.38820  0.38820  0.11180  Biso   1.000  C
  C34      1.0000 0.44590  0.44590  0.05410  Biso   1.000  C
  C35      1.0000 0.11180  0.11180  0.38820  Biso   1.000  C
  C36      1.0000 0.05410  0.05410  0.44590  Biso   1.000  C
  C37      1.0000 0.38820  0.11180  0.11180  Biso   1.000  C
  C38      1.0000 0.44590  0.05410  0.05410  Biso   1.000  C
  C39      1.0000 0.11180  0.38820  0.38820  Biso   1.000  C
  C40      1.0000 0.05410  0.44590  0.44590  Biso   1.000  C
  C41      1.0000 0.38820  0.11180  0.38820  Biso   1.000  C
  C42      1.0000 0.44590  0.05410  0.44590  Biso   1.000  C
  C43      1.0000 0.11180  0.38820  0.11180  Biso   1.000  C
  C44      1.0000 0.05410  0.44590  0.05410  Biso   1.000  C
  C45      1.0000 0.61180  0.61180  0.88820  Biso   1.000  C
  C46      1.0000 0.55410  0.55410  0.94590  Biso   1.000  C
  C47      1.0000 0.88820  0.88820  0.61180  Biso   1.000  C
  C48      1.0000 0.94590  0.94590  0.55410  Biso   1.000  C
  C49      1.0000 0.88820  0.61180  0.88820  Biso   1.000  C
  C50      1.0000 0.94590  0.55410  0.94590  Biso   1.000  C
  C51      1.0000 0.61180  0.88820  0.61180  Biso   1.000  C
  C52      1.0000 0.55410  0.94590  0.55410  Biso   1.000  C
  C53      1.0000 0.88820  0.61180  0.61180  Biso   1.000  C
  C54      1.0000 0.94590  0.55410  0.55410  Biso   1.000  C
  C55      1.0000 0.61180  0.88820  0.88820  Biso   1.000  C
  C56      1.0000 0.55410  0.94590  0.94590  Biso   1.000  C
  C57      1.0000 0.25000  0.25000  0.25000  Biso   1.000  C
  C58      1.0000 0.75000  0.75000  0.75000  Biso   1.000  C
  C59      1.0000 0.36569  0.36569  0.19789  Biso   1.000  C
  C60      1.0000 0.36569  0.36569  0.07073  Biso   1.000  C
  C61      1.0000 0.19789  0.07073  0.36569  Biso   1.000  C
  C62      1.0000 0.07073  0.19789  0.36569  Biso   1.000  C
  C63      1.0000 0.36569  0.19789  0.07073  Biso   1.000  C
  C64      1.0000 0.36569  0.07073  0.19789  Biso   1.000  C
  C65      1.0000 0.19789  0.36569  0.36569  Biso   1.000  C
  C66      1.0000 0.07073  0.36569  0.36569  Biso   1.000  C
  C67      1.0000 0.36569  0.07073  0.36569  Biso   1.000  C
  C68      1.0000 0.36569  0.19789  0.36569  Biso   1.000  C
  C69      1.0000 0.19789  0.36569  0.07073  Biso   1.000  C
  C70      1.0000 0.07073  0.36569  0.19789  Biso   1.000  C
  C71      1.0000 0.63431  0.63431  0.80211  Biso   1.000  C
  C72      1.0000 0.63431  0.63431  0.92927  Biso   1.000  C
  C73      1.0000 0.92927  0.80211  0.63431  Biso   1.000  C
  C74      1.0000 0.80211  0.92927  0.63431  Biso   1.000  C
  C75      1.0000 0.80211  0.63431  0.92927  Biso   1.000  C
  C76      1.0000 0.92927  0.63431  0.80211  Biso   1.000  C
  C77      1.0000 0.63431  0.80211  0.63431  Biso   1.000  C
  C78      1.0000 0.63431  0.92927  0.63431  Biso   1.000  C
  C79      1.0000 0.92927  0.63431  0.63431  Biso   1.000  C
  C80      1.0000 0.80211  0.63431  0.63431  Biso   1.000  C
  C81      1.0000 0.63431  0.80211  0.92927  Biso   1.000  C
  C82      1.0000 0.63431  0.92927  0.80211  Biso   1.000  C
  C83      1.0000 0.45110  0.45110  0.92847  Biso   1.000  C
  C84      1.0000 0.45110  0.45110  0.16934  Biso   1.000  C
  C85      1.0000 0.92847  0.16934  0.45110  Biso   1.000  C
  C86      1.0000 0.16934  0.92847  0.45110  Biso   1.000  C
  C87      1.0000 0.45110  0.92847  0.16934  Biso   1.000  C
  C88      1.0000 0.45110  0.16934  0.92847  Biso   1.000  C
  C89      1.0000 0.92847  0.45110  0.45110  Biso   1.000  C
  C90      1.0000 0.16934  0.45110  0.45110  Biso   1.000  C
  C91      1.0000 0.45110  0.16934  0.45110  Biso   1.000  C
  C92      1.0000 0.45110  0.92847  0.45110  Biso   1.000  C
  C93      1.0000 0.92847  0.45110  0.16934  Biso   1.000  C
  C94      1.0000 0.16934  0.45110  0.92847  Biso   1.000  C
  C95      1.0000 0.54890  0.54890  0.07153  Biso   1.000  C
  C96      1.0000 0.54890  0.54890  0.83066  Biso   1.000  C
  C97      1.0000 0.83066  0.07153  0.54890  Biso   1.000  C
  C98      1.0000 0.07153  0.83066  0.54890  Biso   1.000  C
  C99      1.0000 0.07153  0.54890  0.83066  Biso   1.000  C
  C100     1.0000 0.83066  0.54890  0.07153  Biso   1.000  C
  C101     1.0000 0.54890  0.07153  0.54890  Biso   1.000  C
  C102     1.0000 0.54890  0.83066  0.54890  Biso   1.000  C
  C103     1.0000 0.83066  0.54890  0.54890  Biso   1.000  C
  C104     1.0000 0.07153  0.54890  0.54890  Biso   1.000  C
  C105     1.0000 0.54890  0.07153  0.83066  Biso   1.000  C
  C106     1.0000 0.54890  0.83066  0.07153  Biso   1.000  C
  O1       1.0000 0.91085  0.75264  0.44088  Biso   1.000  O
  O2       1.0000 0.08878  0.75264  0.26295  Biso   1.000  O
  O3       1.0000 0.91085  0.75264  0.26295  Biso   1.000  O
  O4       1.0000 0.91085  0.93057  0.26295  Biso   1.000  O
  O5       1.0000 0.53464  0.32999  0.66237  Biso   1.000  O
  O6       1.0000 0.35671  0.32999  0.84030  Biso   1.000  O
  O7       1.0000 0.53464  0.15206  0.84030  Biso   1.000  O
  O8       1.0000 0.53464  0.32999  0.84030  Biso   1.000  O
  O9       1.0000 0.07637  0.58716  0.60632  Biso   1.000  O
  O10      1.0000 0.27744  0.58716  0.40525  Biso   1.000  O
  O11      1.0000 0.76858  0.89494  0.09746  Biso   1.000  O
  O12      1.0000 0.76858  0.09601  0.09746  Biso   1.000  O
  O13      1.0000 0.76858  0.09601  0.40525  Biso   1.000  O
  O14      1.0000 0.76858  0.89494  0.60632  Biso   1.000  O
  O15      1.0000 0.07637  0.58716  0.09746  Biso   1.000  O
  O16      1.0000 0.27744  0.58716  0.09746  Biso   1.000  O
  O17      1.0000 0.27744  0.89494  0.09746  Biso   1.000  O
  O18      1.0000 0.07637  0.09601  0.09746  Biso   1.000  O
  O19      1.0000 0.76858  0.58716  0.40525  Biso   1.000  O
  O20      1.0000 0.76858  0.58716  0.60632  Biso   1.000  O
  O21      1.0000 0.36912  0.49548  0.49693  Biso   1.000  O
  O22      1.0000 0.16805  0.49548  0.69800  Biso   1.000  O
  O23      1.0000 0.67690  0.98662  0.00578  Biso   1.000  O
  O24      1.0000 0.67690  0.18769  0.00578  Biso   1.000  O
  O25      1.0000 0.67690  0.49548  0.69800  Biso   1.000  O
  O26      1.0000 0.67690  0.49548  0.49693  Biso   1.000  O
  O27      1.0000 0.36912  0.98662  0.00578  Biso   1.000  O
  O28      1.0000 0.16805  0.18769  0.00578  Biso   1.000  O
  O29      1.0000 0.16805  0.49548  0.00578  Biso   1.000  O
  O30      1.0000 0.36912  0.49548  0.00578  Biso   1.000  O
  O31      1.0000 0.67690  0.98662  0.69800  Biso   1.000  O
  O32      1.0000 0.67690  0.18769  0.49693  Biso   1.000  O
  O33      1.0000 0.14114  0.56856  0.57875  Biso   1.000  O
  O34      1.0000 0.24987  0.56856  0.47002  Biso   1.000  O
  O35      1.0000 0.74998  0.95971  0.07886  Biso   1.000  O
  O36      1.0000 0.74998  0.06845  0.07886  Biso   1.000  O
  O37      1.0000 0.74998  0.06845  0.47002  Biso   1.000  O
  O38      1.0000 0.74998  0.95971  0.57875  Biso   1.000  O
  O39      1.0000 0.14114  0.56856  0.07886  Biso   1.000  O
  O40      1.0000 0.24987  0.56856  0.07886  Biso   1.000  O
  O41      1.0000 0.24987  0.95971  0.07886  Biso   1.000  O
  O42      1.0000 0.14114  0.06845  0.07886  Biso   1.000  O
  O43      1.0000 0.74998  0.56856  0.47002  Biso   1.000  O
  O44      1.0000 0.74998  0.56856  0.57875  Biso   1.000  O
  O45      1.0000 0.30435  0.51408  0.52449  Biso   1.000  O
  O46      1.0000 0.19561  0.51408  0.63323  Biso   1.000  O
  O47      1.0000 0.69551  0.01419  0.02439  Biso   1.000  O
  O48      1.0000 0.69550  0.12292  0.02439  Biso   1.000  O
  O49      1.0000 0.69550  0.51408  0.63323  Biso   1.000  O
  O50      1.0000 0.69551  0.51408  0.52449  Biso   1.000  O
  O51      1.0000 0.30435  0.01419  0.02439  Biso   1.000  O
  O52      1.0000 0.19561  0.12292  0.02439  Biso   1.000  O
  O53      1.0000 0.19561  0.51408  0.02439  Biso   1.000  O
  O54      1.0000 0.30435  0.51408  0.02439  Biso   1.000  O
  O55      1.0000 0.69551  0.01419  0.63323  Biso   1.000  O
  O56      1.0000 0.69551  0.12292  0.52449  Biso   1.000  O
  O57      1.0000 0.09707  0.65538  0.44918  Biso   1.000  O
  O58      1.0000 0.15603  0.59642  0.50813  Biso   1.000  O
  O59      1.0000 0.81358  0.93887  0.16568  Biso   1.000  O
  O60      1.0000 0.75462  0.99783  0.10672  Biso   1.000  O
  O61      1.0000 0.81358  0.93887  0.44918  Biso   1.000  O
  O62      1.0000 0.75462  0.99783  0.50813  Biso   1.000  O
  O63      1.0000 0.09707  0.65538  0.16568  Biso   1.000  O
  O64      1.0000 0.15603  0.59642  0.10672  Biso   1.000  O
  O65      1.0000 0.09707  0.93887  0.16568  Biso   1.000  O
  O66      1.0000 0.15603  0.99783  0.10672  Biso   1.000  O
  O67      1.0000 0.81358  0.65538  0.44918  Biso   1.000  O
  O68      1.0000 0.75462  0.59642  0.50813  Biso   1.000  O
  O69      1.0000 0.34841  0.42726  0.65407  Biso   1.000  O
  O70      1.0000 0.28945  0.48622  0.59511  Biso   1.000  O
  O71      1.0000 0.63191  0.14377  0.93757  Biso   1.000  O
  O72      1.0000 0.69086  0.08481  0.99652  Biso   1.000  O
  O73      1.0000 0.63191  0.42726  0.65407  Biso   1.000  O
  O74      1.0000 0.69086  0.48622  0.59511  Biso   1.000  O
  O75      1.0000 0.34841  0.14377  0.93757  Biso   1.000  O
  O76      1.0000 0.28945  0.08481  0.99652  Biso   1.000  O
  O77      1.0000 0.34841  0.42726  0.93757  Biso   1.000  O
  O78      1.0000 0.28945  0.48622  0.99652  Biso   1.000  O
  O79      1.0000 0.63191  0.14377  0.65407  Biso   1.000  O
  O80      1.0000 0.69086  0.08481  0.59511  Biso   1.000  O
  O81      1.0000 0.95533  0.79712  0.30743  Biso   1.000  O
  O82      1.0000 0.49016  0.28551  0.79582  Biso   1.000  O
  O83      1.0000 0.01195  0.67818  0.48868  Biso   1.000  O
  O84      1.0000 0.13658  0.67818  0.36405  Biso   1.000  O
  O85      1.0000 0.83639  0.85375  0.18849  Biso   1.000  O
  O86      1.0000 0.83639  0.97838  0.18849  Biso   1.000  O
  O87      1.0000 0.83639  0.97838  0.36405  Biso   1.000  O
  O88      1.0000 0.83639  0.85375  0.48868  Biso   1.000  O
  O89      1.0000 0.01195  0.67818  0.18849  Biso   1.000  O
  O90      1.0000 0.13658  0.67818  0.18849  Biso   1.000  O
  O91      1.0000 0.13658  0.85375  0.18849  Biso   1.000  O
  O92      1.0000 0.01195  0.97838  0.18849  Biso   1.000  O
  O93      1.0000 0.83639  0.67818  0.36405  Biso   1.000  O
  O94      1.0000 0.83639  0.67818  0.48868  Biso   1.000  O
  O95      1.0000 0.43353  0.40445  0.61456  Biso   1.000  O
  O96      1.0000 0.30891  0.40445  0.73919  Biso   1.000  O
  O97      1.0000 0.60910  0.10426  0.91476  Biso   1.000  O
  O98      1.0000 0.60910  0.22889  0.91476  Biso   1.000  O
  O99      1.0000 0.60910  0.40445  0.73919  Biso   1.000  O
  O100     1.0000 0.60910  0.40445  0.61456  Biso   1.000  O
  O101     1.0000 0.43353  0.10426  0.91476  Biso   1.000  O
  O102     1.0000 0.30891  0.22889  0.91476  Biso   1.000  O
  O103     1.0000 0.30891  0.40445  0.91476  Biso   1.000  O
  O104     1.0000 0.43353  0.40445  0.91476  Biso   1.000  O
  O105     1.0000 0.60910  0.10426  0.73919  Biso   1.000  O
  O106     1.0000 0.60910  0.22889  0.61456  Biso   1.000  O
