data_image0
_cell_length_a       18.0703
_cell_length_b       18.0703
_cell_length_c       18.0703
_cell_angle_alpha    60
_cell_angle_beta     60
_cell_angle_gamma    60

_symmetry_space_group_name_H-M    "P 1"
_symmetry_int_tables_number       1

loop_
  _symmetry_equiv_pos_as_xyz
  'x, y, z'

loop_
  _atom_site_label
  _atom_site_occupancy
  _atom_site_fract_x
  _atom_site_fract_y
  _atom_site_fract_z
  _atom_site_thermal_displace_type
  _atom_site_B_iso_or_equiv
  _atom_site_type_symbol
  C1       1.0000 0.29350  0.29350  0.29350  Biso   1.000  C
  C2       1.0000 0.29350  0.29350  0.11950  Biso   1.000  C
  C3       1.0000 0.29350  0.11950  0.29350  Biso   1.000  C
  C4       1.0000 0.11950  0.29350  0.29350  Biso   1.000  C
  C5       1.0000 0.70650  0.70650  0.70650  Biso   1.000  C
  C6       1.0000 0.70650  0.70650  0.88050  Biso   1.000  C
  C7       1.0000 0.88050  0.70650  0.70650  Biso   1.000  C
  C8       1.0000 0.70650  0.88050  0.70650  Biso   1.000  C
  C9       1.0000 0.47340  0.47340  0.96080  Biso   1.000  C
  C10      1.0000 0.47340  0.47340  0.09240  Biso   1.000  C
  C11      1.0000 0.96080  0.09240  0.47340  Biso   1.000  C
  C12      1.0000 0.09240  0.96080  0.47340  Biso   1.000  C
  C13      1.0000 0.47340  0.96080  0.09240  Biso   1.000  C
  C14      1.0000 0.47340  0.09240  0.96080  Biso   1.000  C
  C15      1.0000 0.96080  0.47340  0.47340  Biso   1.000  C
  C16      1.0000 0.09240  0.47340  0.47340  Biso   1.000  C
  C17      1.0000 0.47340  0.09240  0.47340  Biso   1.000  C
  C18      1.0000 0.47340  0.96080  0.47340  Biso   1.000  C
  C19      1.0000 0.96080  0.47340  0.09240  Biso   1.000  C
  C20      1.0000 0.09240  0.47340  0.96080  Biso   1.000  C
  C21      1.0000 0.52660  0.52660  0.03920  Biso   1.000  C
  C22      1.0000 0.52660  0.52660  0.90760  Biso   1.000  C
  C23      1.0000 0.90760  0.03920  0.52660  Biso   1.000  C
  C24      1.0000 0.03920  0.90760  0.52660  Biso   1.000  C
  C25      1.0000 0.03920  0.52660  0.90760  Biso   1.000  C
  C26      1.0000 0.90760  0.52660  0.03920  Biso   1.000  C
  C27      1.0000 0.52660  0.03920  0.52660  Biso   1.000  C
  C28      1.0000 0.52660  0.90760  0.52660  Biso   1.000  C
  C29      1.0000 0.90760  0.52660  0.52660  Biso   1.000  C
  C30      1.0000 0.03920  0.52660  0.52660  Biso   1.000  C
  C31      1.0000 0.52660  0.03920  0.90760  Biso   1.000  C
  C32      1.0000 0.52660  0.90760  0.03920  Biso   1.000  C
  C33      1.0000 0.38820  0.38820  0.11180  Biso   1.000  C
  C34      1.0000 0.44590  0.44590  0.05410  Biso   1.000  C
  C35      1.0000 0.11180  0.11180  0.38820  Biso   1.000  C
  C36      1.0000 0.05410  0.05410  0.44590  Biso   1.000  C
  C37      1.0000 0.38820  0.11180  0.11180  Biso   1.000  C
  C38      1.0000 0.44590  0.05410  0.05410  Biso   1.000  C
  C39      1.0000 0.11180  0.38820  0.38820  Biso   1.000  C
  C40      1.0000 0.05410  0.44590  0.44590  Biso   1.000  C
  C41      1.0000 0.38820  0.11180  0.38820  Biso   1.000  C
  C42      1.0000 0.44590  0.05410  0.44590  Biso   1.000  C
  C43      1.0000 0.11180  0.38820  0.11180  Biso   1.000  C
  C44      1.0000 0.05410  0.44590  0.05410  Biso   1.000  C
  C45      1.0000 0.61180  0.61180  0.88820  Biso   1.000  C
  C46      1.0000 0.55410  0.55410  0.94590  Biso   1.000  C
  C47      1.0000 0.88820  0.88820  0.61180  Biso   1.000  C
  C48      1.0000 0.94590  0.94590  0.55410  Biso   1.000  C
  C49      1.0000 0.88820  0.61180  0.88820  Biso   1.000  C
  C50      1.0000 0.94590  0.55410  0.94590  Biso   1.000  C
  C51      1.0000 0.61180  0.88820  0.61180  Biso   1.000  C
  C52      1.0000 0.55410  0.94590  0.55410  Biso   1.000  C
  C53      1.0000 0.88820  0.61180  0.61180  Biso   1.000  C
  C54      1.0000 0.94590  0.55410  0.55410  Biso   1.000  C
  C55      1.0000 0.61180  0.88820  0.88820  Biso   1.000  C
  C56      1.0000 0.55410  0.94590  0.94590  Biso   1.000  C
  C57      1.0000 0.25000  0.25000  0.25000  Biso   1.000  C
  C58      1.0000 0.75000  0.75000  0.75000  Biso   1.000  C
  C59      1.0000 0.36569  0.36569  0.19789  Biso   1.000  C
  C60      1.0000 0.36569  0.36569  0.07073  Biso   1.000  C
  C61      1.0000 0.19789  0.07073  0.36569  Biso   1.000  C
  C62      1.0000 0.07073  0.19789  0.36569  Biso   1.000  C
  C63      1.0000 0.36569  0.19789  0.07073  Biso   1.000  C
  C64      1.0000 0.36569  0.07073  0.19789  Biso   1.000  C
  C65      1.0000 0.19789  0.36569  0.36569  Biso   1.000  C
  C66      1.0000 0.07073  0.36569  0.36569  Biso   1.000  C
  C67      1.0000 0.36569  0.07073  0.36569  Biso   1.000  C
  C68      1.0000 0.36569  0.19789  0.36569  Biso   1.000  C
  C69      1.0000 0.19789  0.36569  0.07073  Biso   1.000  C
  C70      1.0000 0.07073  0.36569  0.19789  Biso   1.000  C
  C71      1.0000 0.63431  0.63431  0.80211  Biso   1.000  C
  C72      1.0000 0.63431  0.63431  0.92927  Biso   1.000  C
  C73      1.0000 0.92927  0.80211  0.63431  Biso   1.000  C
  C74      1.0000 0.80211  0.92927  0.63431  Biso   1.000  C
  C75      1.0000 0.80211  0.63431  0.92927  Biso   1.000  C
  C76      1.0000 0.92927  0.63431  0.80211  Biso   1.000  C
  C77      1.0000 0.63431  0.80211  0.63431  Biso   1.000  C
  C78      1.0000 0.63431  0.92927  0.63431  Biso   1.000  C
  C79      1.0000 0.92927  0.63431  0.63431  Biso   1.000  C
  C80      1.0000 0.80211  0.63431  0.63431  Biso   1.000  C
  C81      1.0000 0.63431  0.80211  0.92927  Biso   1.000  C
  C82      1.0000 0.63431  0.92927  0.80211  Biso   1.000  C
  C83      1.0000 0.45110  0.45110  0.92847  Biso   1.000  C
  C84      1.0000 0.45110  0.45110  0.16934  Biso   1.000  C
  C85      1.0000 0.92847  0.16934  0.45110  Biso   1.000  C
  C86      1.0000 0.16934  0.92847  0.45110  Biso   1.000  C
  C87      1.0000 0.45110  0.92847  0.16934  Biso   1.000  C
  C88      1.0000 0.45110  0.16934  0.92847  Biso   1.000  C
  C89      1.0000 0.92847  0.45110  0.45110  Biso   1.000  C
  C90      1.0000 0.16934  0.45110  0.45110  Biso   1.000  C
  C91      1.0000 0.45110  0.16934  0.45110  Biso   1.000  C
  C92      1.0000 0.45110  0.92847  0.45110  Biso   1.000  C
  C93      1.0000 0.92847  0.45110  0.16934  Biso   1.000  C
  C94      1.0000 0.16934  0.45110  0.92847  Biso   1.000  C
  C95      1.0000 0.54890  0.54890  0.07153  Biso   1.000  C
  C96      1.0000 0.54890  0.54890  0.83066  Biso   1.000  C
  C97      1.0000 0.83066  0.07153  0.54890  Biso   1.000  C
  C98      1.0000 0.07153  0.83066  0.54890  Biso   1.000  C
  C99      1.0000 0.07153  0.54890  0.83066  Biso   1.000  C
  C100     1.0000 0.83066  0.54890  0.07153  Biso   1.000  C
  C101     1.0000 0.54890  0.07153  0.54890  Biso   1.000  C
  C102     1.0000 0.54890  0.83066  0.54890  Biso   1.000  C
  C103     1.0000 0.83066  0.54890  0.54890  Biso   1.000  C
  C104     1.0000 0.07153  0.54890  0.54890  Biso   1.000  C
  C105     1.0000 0.54890  0.07153  0.83066  Biso   1.000  C
  C106     1.0000 0.54890  0.83066  0.07153  Biso   1.000  C
  O1       1.0000 0.16768  1.00000  0.00000  Biso   1.000  O
  O2       1.0000 0.56816  0.40046  0.59946  Biso   1.000  O
  O3       1.0000 0.38975  0.57887  0.59946  Biso   1.000  O
  O4       1.0000 0.98927  0.17841  0.00000  Biso   1.000  O
  O5       1.0000 0.98893  0.99965  0.17865  Biso   1.000  O
  O6       1.0000 0.98912  0.99985  0.99990  Biso   1.000  O
  O7       1.0000 0.56850  0.57921  0.42081  Biso   1.000  O
  O8       1.0000 0.56831  0.57902  0.59956  Biso   1.000  O
  O9       1.0000 0.82596  0.34149  0.14648  Biso   1.000  O
  O10      1.0000 0.82268  0.14251  0.36248  Biso   1.000  O
  O11      1.0000 0.82690  0.34038  0.83661  Biso   1.000  O
  O12      1.0000 0.82281  0.14509  0.83426  Biso   1.000  O
  O13      1.0000 0.33253  0.14304  0.83916  Biso   1.000  O
  O14      1.0000 0.22665  0.74219  0.45298  Biso   1.000  O
  O15      1.0000 0.42565  0.74547  0.23698  Biso   1.000  O
  O16      1.0000 0.22775  0.74126  0.76285  Biso   1.000  O
  O17      1.0000 0.42307  0.74534  0.76520  Biso   1.000  O
  O18      1.0000 0.42511  0.23563  0.76030  Biso   1.000  O
  O19      1.0000 0.73147  0.23738  0.45298  Biso   1.000  O
  O20      1.0000 0.73475  0.43636  0.23698  Biso   1.000  O
  O21      1.0000 0.73053  0.23848  0.76285  Biso   1.000  O
  O22      1.0000 0.73462  0.43378  0.76520  Biso   1.000  O
  O23      1.0000 0.22490  0.43582  0.76030  Biso   1.000  O
  O24      1.0000 0.33078  0.83668  0.14648  Biso   1.000  O
  O25      1.0000 0.13178  0.83340  0.36248  Biso   1.000  O
  O26      1.0000 0.32968  0.83761  0.83661  Biso   1.000  O
  O27      1.0000 0.13436  0.83353  0.83426  Biso   1.000  O
  O28      1.0000 0.13232  0.34324  0.83916  Biso   1.000  O
  O29      1.0000 0.82402  0.83474  0.14433  Biso   1.000  O
  O30      1.0000 0.82288  0.83360  0.36483  Biso   1.000  O
  O31      1.0000 0.73341  0.74413  0.45513  Biso   1.000  O
  O32      1.0000 0.73455  0.74526  0.23463  Biso   1.000  O
  O33      1.0000 0.89318  0.18710  0.18362  Biso   1.000  O
  O34      1.0000 0.83227  0.24637  0.24606  Biso   1.000  O
  O35      1.0000 0.80688  0.31527  0.20994  Biso   1.000  O
  O36      1.0000 0.80564  0.20586  0.33595  Biso   1.000  O
  O37      1.0000 0.89442  0.18385  0.90089  Biso   1.000  O
  O38      1.0000 0.83597  0.24353  0.84446  Biso   1.000  O
  O39      1.0000 0.80853  0.31366  0.81824  Biso   1.000  O
  O40      1.0000 0.80567  0.20834  0.81640  Biso   1.000  O
  O41      1.0000 0.30591  0.20640  0.81865  Biso   1.000  O
  O42      1.0000 0.38106  0.67497  0.41584  Biso   1.000  O
  O43      1.0000 0.32180  0.73587  0.35340  Biso   1.000  O
  O44      1.0000 0.25287  0.76127  0.38952  Biso   1.000  O
  O45      1.0000 0.36230  0.76250  0.26351  Biso   1.000  O
  O46      1.0000 0.38431  0.67373  0.69857  Biso   1.000  O
  O47      1.0000 0.32463  0.73218  0.75500  Biso   1.000  O
  O48      1.0000 0.25448  0.75962  0.78122  Biso   1.000  O
  O49      1.0000 0.35982  0.76248  0.78306  Biso   1.000  O
  O50      1.0000 0.36175  0.26225  0.78081  Biso   1.000  O
  O51      1.0000 0.66425  0.39177  0.41584  Biso   1.000  O
  O52      1.0000 0.72516  0.33250  0.35340  Biso   1.000  O
  O53      1.0000 0.75055  0.26360  0.38952  Biso   1.000  O
  O54      1.0000 0.75179  0.37301  0.26351  Biso   1.000  O
  O55      1.0000 0.66301  0.39502  0.69857  Biso   1.000  O
  O56      1.0000 0.72146  0.33534  0.75500  Biso   1.000  O
  O57      1.0000 0.74889  0.26521  0.78122  Biso   1.000  O
  O58      1.0000 0.75176  0.37053  0.78306  Biso   1.000  O
  O59      1.0000 0.25152  0.37247  0.78081  Biso   1.000  O
  O60      1.0000 0.17637  0.90390  0.18362  Biso   1.000  O
  O61      1.0000 0.23563  0.84300  0.24606  Biso   1.000  O
  O62      1.0000 0.30456  0.81760  0.20994  Biso   1.000  O
  O63      1.0000 0.19513  0.81636  0.33595  Biso   1.000  O
  O64      1.0000 0.17312  0.90514  0.90089  Biso   1.000  O
  O65      1.0000 0.23280  0.84669  0.84446  Biso   1.000  O
  O66      1.0000 0.30295  0.81925  0.81824  Biso   1.000  O
  O67      1.0000 0.19761  0.81639  0.81640  Biso   1.000  O
  O68      1.0000 0.19567  0.31662  0.81865  Biso   1.000  O
  O69      1.0000 0.89236  0.90309  0.19056  Biso   1.000  O
  O70      1.0000 0.83401  0.84473  0.24382  Biso   1.000  O
  O71      1.0000 0.80626  0.81698  0.20759  Biso   1.000  O
  O72      1.0000 0.80503  0.81575  0.33718  Biso   1.000  O
  O73      1.0000 0.17128  0.18201  0.90905  Biso   1.000  O
  O74      1.0000 0.23422  0.24496  0.84436  Biso   1.000  O
  O75      1.0000 0.66507  0.67578  0.40890  Biso   1.000  O
  O76      1.0000 0.72342  0.73414  0.35564  Biso   1.000  O
  O77      1.0000 0.75117  0.76189  0.39187  Biso   1.000  O
  O78      1.0000 0.75240  0.76312  0.26228  Biso   1.000  O
  O79      1.0000 0.38615  0.39686  0.69041  Biso   1.000  O
  O80      1.0000 0.32320  0.33391  0.75510  Biso   1.000  O
  O81      1.0000 0.91296  0.09997  0.23045  Biso   1.000  O
  O82      1.0000 0.91511  0.23189  0.09771  Biso   1.000  O
  O83      1.0000 0.91155  0.09897  0.92792  Biso   1.000  O
  O84      1.0000 0.91451  0.22884  0.92384  Biso   1.000  O
  O85      1.0000 0.21821  0.09795  0.92670  Biso   1.000  O
  O86      1.0000 0.46818  0.65518  0.36901  Biso   1.000  O
  O87      1.0000 0.33627  0.65303  0.50175  Biso   1.000  O
  O88      1.0000 0.46919  0.65659  0.67154  Biso   1.000  O
  O89      1.0000 0.33932  0.65363  0.67562  Biso   1.000  O
  O90      1.0000 0.47021  0.34993  0.67276  Biso   1.000  O
  O91      1.0000 0.64446  0.47889  0.36901  Biso   1.000  O
  O92      1.0000 0.64232  0.34698  0.50175  Biso   1.000  O
  O93      1.0000 0.64588  0.47990  0.67154  Biso   1.000  O
  O94      1.0000 0.64292  0.35003  0.67562  Biso   1.000  O
  O95      1.0000 0.33922  0.48092  0.67276  Biso   1.000  O
  O96      1.0000 0.08925  0.92369  0.23045  Biso   1.000  O
  O97      1.0000 0.22116  0.92584  0.09771  Biso   1.000  O
  O98      1.0000 0.08824  0.92228  0.92792  Biso   1.000  O
  O99      1.0000 0.21811  0.92524  0.92384  Biso   1.000  O
  O100     1.0000 0.08722  0.22894  0.92670  Biso   1.000  O
  O101     1.0000 0.03396  0.04469  0.04496  Biso   1.000  O
  O102     1.0000 0.91399  0.92471  0.22974  Biso   1.000  O
  O103     1.0000 0.91165  0.92237  0.10587  Biso   1.000  O
  O104     1.0000 0.52347  0.53418  0.55450  Biso   1.000  O
  O105     1.0000 0.64344  0.65416  0.36972  Biso   1.000  O
  O106     1.0000 0.64578  0.65650  0.49359  Biso   1.000  O
