data_image0
_cell_length_a       18.0703
_cell_length_b       18.0703
_cell_length_c       18.0703
_cell_angle_alpha    60
_cell_angle_beta     60
_cell_angle_gamma    60

_symmetry_space_group_name_H-M    "P 1"
_symmetry_int_tables_number       1

loop_
  _symmetry_equiv_pos_as_xyz
  'x, y, z'

loop_
  _atom_site_label
  _atom_site_occupancy
  _atom_site_fract_x
  _atom_site_fract_y
  _atom_site_fract_z
  _atom_site_thermal_displace_type
  _atom_site_B_iso_or_equiv
  _atom_site_type_symbol
  C1       1.0000 0.29350  0.29350  0.29350  Biso   1.000  C
  C2       1.0000 0.29350  0.29350  0.11950  Biso   1.000  C
  C3       1.0000 0.29350  0.11950  0.29350  Biso   1.000  C
  C4       1.0000 0.11950  0.29350  0.29350  Biso   1.000  C
  C5       1.0000 0.70650  0.70650  0.70650  Biso   1.000  C
  C6       1.0000 0.70650  0.70650  0.88050  Biso   1.000  C
  C7       1.0000 0.88050  0.70650  0.70650  Biso   1.000  C
  C8       1.0000 0.70650  0.88050  0.70650  Biso   1.000  C
  C9       1.0000 0.47340  0.47340  0.96080  Biso   1.000  C
  C10      1.0000 0.47340  0.47340  0.09240  Biso   1.000  C
  C11      1.0000 0.96080  0.09240  0.47340  Biso   1.000  C
  C12      1.0000 0.09240  0.96080  0.47340  Biso   1.000  C
  C13      1.0000 0.47340  0.96080  0.09240  Biso   1.000  C
  C14      1.0000 0.47340  0.09240  0.96080  Biso   1.000  C
  C15      1.0000 0.96080  0.47340  0.47340  Biso   1.000  C
  C16      1.0000 0.09240  0.47340  0.47340  Biso   1.000  C
  C17      1.0000 0.47340  0.09240  0.47340  Biso   1.000  C
  C18      1.0000 0.47340  0.96080  0.47340  Biso   1.000  C
  C19      1.0000 0.96080  0.47340  0.09240  Biso   1.000  C
  C20      1.0000 0.09240  0.47340  0.96080  Biso   1.000  C
  C21      1.0000 0.52660  0.52660  0.03920  Biso   1.000  C
  C22      1.0000 0.52660  0.52660  0.90760  Biso   1.000  C
  C23      1.0000 0.90760  0.03920  0.52660  Biso   1.000  C
  C24      1.0000 0.03920  0.90760  0.52660  Biso   1.000  C
  C25      1.0000 0.03920  0.52660  0.90760  Biso   1.000  C
  C26      1.0000 0.90760  0.52660  0.03920  Biso   1.000  C
  C27      1.0000 0.52660  0.03920  0.52660  Biso   1.000  C
  C28      1.0000 0.52660  0.90760  0.52660  Biso   1.000  C
  C29      1.0000 0.90760  0.52660  0.52660  Biso   1.000  C
  C30      1.0000 0.03920  0.52660  0.52660  Biso   1.000  C
  C31      1.0000 0.52660  0.03920  0.90760  Biso   1.000  C
  C32      1.0000 0.52660  0.90760  0.03920  Biso   1.000  C
  C33      1.0000 0.38820  0.38820  0.11180  Biso   1.000  C
  C34      1.0000 0.44590  0.44590  0.05410  Biso   1.000  C
  C35      1.0000 0.11180  0.11180  0.38820  Biso   1.000  C
  C36      1.0000 0.05410  0.05410  0.44590  Biso   1.000  C
  C37      1.0000 0.38820  0.11180  0.11180  Biso   1.000  C
  C38      1.0000 0.44590  0.05410  0.05410  Biso   1.000  C
  C39      1.0000 0.11180  0.38820  0.38820  Biso   1.000  C
  C40      1.0000 0.05410  0.44590  0.44590  Biso   1.000  C
  C41      1.0000 0.38820  0.11180  0.38820  Biso   1.000  C
  C42      1.0000 0.44590  0.05410  0.44590  Biso   1.000  C
  C43      1.0000 0.11180  0.38820  0.11180  Biso   1.000  C
  C44      1.0000 0.05410  0.44590  0.05410  Biso   1.000  C
  C45      1.0000 0.61180  0.61180  0.88820  Biso   1.000  C
  C46      1.0000 0.55410  0.55410  0.94590  Biso   1.000  C
  C47      1.0000 0.88820  0.88820  0.61180  Biso   1.000  C
  C48      1.0000 0.94590  0.94590  0.55410  Biso   1.000  C
  C49      1.0000 0.88820  0.61180  0.88820  Biso   1.000  C
  C50      1.0000 0.94590  0.55410  0.94590  Biso   1.000  C
  C51      1.0000 0.61180  0.88820  0.61180  Biso   1.000  C
  C52      1.0000 0.55410  0.94590  0.55410  Biso   1.000  C
  C53      1.0000 0.88820  0.61180  0.61180  Biso   1.000  C
  C54      1.0000 0.94590  0.55410  0.55410  Biso   1.000  C
  C55      1.0000 0.61180  0.88820  0.88820  Biso   1.000  C
  C56      1.0000 0.55410  0.94590  0.94590  Biso   1.000  C
  C57      1.0000 0.25000  0.25000  0.25000  Biso   1.000  C
  C58      1.0000 0.75000  0.75000  0.75000  Biso   1.000  C
  C59      1.0000 0.36569  0.36569  0.19789  Biso   1.000  C
  C60      1.0000 0.36569  0.36569  0.07073  Biso   1.000  C
  C61      1.0000 0.19789  0.07073  0.36569  Biso   1.000  C
  C62      1.0000 0.07073  0.19789  0.36569  Biso   1.000  C
  C63      1.0000 0.36569  0.19789  0.07073  Biso   1.000  C
  C64      1.0000 0.36569  0.07073  0.19789  Biso   1.000  C
  C65      1.0000 0.19789  0.36569  0.36569  Biso   1.000  C
  C66      1.0000 0.07073  0.36569  0.36569  Biso   1.000  C
  C67      1.0000 0.36569  0.07073  0.36569  Biso   1.000  C
  C68      1.0000 0.36569  0.19789  0.36569  Biso   1.000  C
  C69      1.0000 0.19789  0.36569  0.07073  Biso   1.000  C
  C70      1.0000 0.07073  0.36569  0.19789  Biso   1.000  C
  C71      1.0000 0.63431  0.63431  0.80211  Biso   1.000  C
  C72      1.0000 0.63431  0.63431  0.92927  Biso   1.000  C
  C73      1.0000 0.92927  0.80211  0.63431  Biso   1.000  C
  C74      1.0000 0.80211  0.92927  0.63431  Biso   1.000  C
  C75      1.0000 0.80211  0.63431  0.92927  Biso   1.000  C
  C76      1.0000 0.92927  0.63431  0.80211  Biso   1.000  C
  C77      1.0000 0.63431  0.80211  0.63431  Biso   1.000  C
  C78      1.0000 0.63431  0.92927  0.63431  Biso   1.000  C
  C79      1.0000 0.92927  0.63431  0.63431  Biso   1.000  C
  C80      1.0000 0.80211  0.63431  0.63431  Biso   1.000  C
  C81      1.0000 0.63431  0.80211  0.92927  Biso   1.000  C
  C82      1.0000 0.63431  0.92927  0.80211  Biso   1.000  C
  C83      1.0000 0.45110  0.45110  0.92847  Biso   1.000  C
  C84      1.0000 0.45110  0.45110  0.16934  Biso   1.000  C
  C85      1.0000 0.92847  0.16934  0.45110  Biso   1.000  C
  C86      1.0000 0.16934  0.92847  0.45110  Biso   1.000  C
  C87      1.0000 0.45110  0.92847  0.16934  Biso   1.000  C
  C88      1.0000 0.45110  0.16934  0.92847  Biso   1.000  C
  C89      1.0000 0.92847  0.45110  0.45110  Biso   1.000  C
  C90      1.0000 0.16934  0.45110  0.45110  Biso   1.000  C
  C91      1.0000 0.45110  0.16934  0.45110  Biso   1.000  C
  C92      1.0000 0.45110  0.92847  0.45110  Biso   1.000  C
  C93      1.0000 0.92847  0.45110  0.16934  Biso   1.000  C
  C94      1.0000 0.16934  0.45110  0.92847  Biso   1.000  C
  C95      1.0000 0.54890  0.54890  0.07153  Biso   1.000  C
  C96      1.0000 0.54890  0.54890  0.83066  Biso   1.000  C
  C97      1.0000 0.83066  0.07153  0.54890  Biso   1.000  C
  C98      1.0000 0.07153  0.83066  0.54890  Biso   1.000  C
  C99      1.0000 0.07153  0.54890  0.83066  Biso   1.000  C
  C100     1.0000 0.83066  0.54890  0.07153  Biso   1.000  C
  C101     1.0000 0.54890  0.07153  0.54890  Biso   1.000  C
  C102     1.0000 0.54890  0.83066  0.54890  Biso   1.000  C
  C103     1.0000 0.83066  0.54890  0.54890  Biso   1.000  C
  C104     1.0000 0.07153  0.54890  0.54890  Biso   1.000  C
  C105     1.0000 0.54890  0.07153  0.83066  Biso   1.000  C
  C106     1.0000 0.54890  0.83066  0.07153  Biso   1.000  C
  O1       1.0000 0.46355  0.48775  0.48285  Biso   1.000  O
  O2       1.0000 0.05246  0.09256  0.09170  Biso   1.000  O
  O3       1.0000 0.46307  0.66664  0.48355  Biso   1.000  O
  O4       1.0000 0.46321  0.48801  0.66248  Biso   1.000  O
  O5       1.0000 0.63948  0.48845  0.48355  Biso   1.000  O
  O6       1.0000 0.87653  0.09186  0.09099  Biso   1.000  O
  O7       1.0000 0.05279  0.09230  0.91206  Biso   1.000  O
  O8       1.0000 0.05294  0.91367  0.09099  Biso   1.000  O
  O9       1.0000 0.29465  0.62856  0.85491  Biso   1.000  O
  O10      1.0000 0.82825  0.31877  0.62517  Biso   1.000  O
  O11      1.0000 0.60149  0.85869  0.31351  Biso   1.000  O
  O12      1.0000 0.91407  0.26212  0.71964  Biso   1.000  O
  O13      1.0000 0.22154  0.72240  0.94937  Biso   1.000  O
  O14      1.0000 0.68801  0.95040  0.26104  Biso   1.000  O
  O15      1.0000 0.22135  0.95175  0.71964  Biso   1.000  O
  O16      1.0000 0.68776  0.26154  0.94937  Biso   1.000  O
  O17      1.0000 0.91452  0.72162  0.26104  Biso   1.000  O
  O18      1.0000 0.60194  0.31819  0.85491  Biso   1.000  O
  O19      1.0000 0.29447  0.85791  0.62517  Biso   1.000  O
  O20      1.0000 0.82800  0.62991  0.31351  Biso   1.000  O
  O21      1.0000 0.30254  0.85176  0.31993  Biso   1.000  O
  O22      1.0000 0.29682  0.63094  0.31258  Biso   1.000  O
  O23      1.0000 0.30297  0.32461  0.84797  Biso   1.000  O
  O24      1.0000 0.29707  0.31783  0.62621  Biso   1.000  O
  O25      1.0000 0.82315  0.32592  0.31993  Biso   1.000  O
  O26      1.0000 0.60604  0.31862  0.31258  Biso   1.000  O
  O27      1.0000 0.69286  0.25439  0.25461  Biso   1.000  O
  O28      1.0000 0.90997  0.26169  0.26197  Biso   1.000  O
  O29      1.0000 0.21304  0.25570  0.72658  Biso   1.000  O
  O30      1.0000 0.21893  0.26248  0.94834  Biso   1.000  O
  O31      1.0000 0.21347  0.72855  0.25461  Biso   1.000  O
  O32      1.0000 0.21919  0.94937  0.26197  Biso   1.000  O
  O33      1.0000 0.27928  0.69217  0.82736  Biso   1.000  O
  O34      1.0000 0.80100  0.30324  0.68898  Biso   1.000  O
  O35      1.0000 0.66425  0.83129  0.29808  Biso   1.000  O
  O36      1.0000 0.85132  0.27742  0.74719  Biso   1.000  O
  O37      1.0000 0.23684  0.74999  0.88557  Biso   1.000  O
  O38      1.0000 0.71532  0.88682  0.27647  Biso   1.000  O
  O39      1.0000 0.23673  0.88814  0.74719  Biso   1.000  O
  O40      1.0000 0.71500  0.27707  0.88557  Biso   1.000  O
  O41      1.0000 0.85176  0.74902  0.27647  Biso   1.000  O
  O42      1.0000 0.66468  0.30289  0.82736  Biso   1.000  O
  O43      1.0000 0.27917  0.83032  0.68898  Biso   1.000  O
  O44      1.0000 0.80068  0.69349  0.29808  Biso   1.000  O
  O45      1.0000 0.36671  0.67780  0.38467  Biso   1.000  O
  O46      1.0000 0.30845  0.73354  0.32521  Biso   1.000  O
  O47      1.0000 0.28313  0.82778  0.29984  Biso   1.000  O
  O48      1.0000 0.27976  0.69442  0.29549  Biso   1.000  O
  O49      1.0000 0.36694  0.38951  0.67344  Biso   1.000  O
  O50      1.0000 0.30878  0.33016  0.72927  Biso   1.000  O
  O51      1.0000 0.28356  0.30466  0.82384  Biso   1.000  O
  O52      1.0000 0.28008  0.30066  0.68991  Biso   1.000  O
  O53      1.0000 0.65142  0.39023  0.38467  Biso   1.000  O
  O54      1.0000 0.70682  0.33117  0.32521  Biso   1.000  O
  O55      1.0000 0.79976  0.30596  0.29984  Biso   1.000  O
  O56      1.0000 0.66864  0.30164  0.29549  Biso   1.000  O
  O57      1.0000 0.86459  0.19008  0.18988  Biso   1.000  O
  O58      1.0000 0.80918  0.24914  0.24933  Biso   1.000  O
  O59      1.0000 0.71625  0.27435  0.27471  Biso   1.000  O
  O60      1.0000 0.84737  0.27867  0.27906  Biso   1.000  O
  O61      1.0000 0.14906  0.19080  0.90110  Biso   1.000  O
  O62      1.0000 0.20723  0.25015  0.84528  Biso   1.000  O
  O63      1.0000 0.23245  0.27565  0.75071  Biso   1.000  O
  O64      1.0000 0.23592  0.27965  0.88464  Biso   1.000  O
  O65      1.0000 0.14930  0.90251  0.18988  Biso   1.000  O
  O66      1.0000 0.20756  0.84677  0.24933  Biso   1.000  O
  O67      1.0000 0.23288  0.75253  0.27471  Biso   1.000  O
  O68      1.0000 0.23625  0.88589  0.27906  Biso   1.000  O
  O69      1.0000 0.36548  0.67636  0.67272  Biso   1.000  O
  O70      1.0000 0.31226  0.73094  0.72766  Biso   1.000  O
  O71      1.0000 0.64907  0.38992  0.67272  Biso   1.000  O
  O72      1.0000 0.70292  0.33635  0.72766  Biso   1.000  O
  O73      1.0000 0.64883  0.67708  0.38508  Biso   1.000  O
  O74      1.0000 0.70260  0.73193  0.33143  Biso   1.000  O
  O75      1.0000 0.86694  0.19039  0.90183  Biso   1.000  O
  O76      1.0000 0.81308  0.24396  0.84688  Biso   1.000  O
  O77      1.0000 0.15053  0.90395  0.90183  Biso   1.000  O
  O78      1.0000 0.20375  0.84937  0.84688  Biso   1.000  O
  O79      1.0000 0.86717  0.90323  0.18946  Biso   1.000  O
  O80      1.0000 0.81341  0.84838  0.24312  Biso   1.000  O
  O81      1.0000 0.38967  0.71598  0.58135  Biso   1.000  O
  O82      1.0000 0.55920  0.41416  0.71227  Biso   1.000  O
  O83      1.0000 0.68803  0.58603  0.40952  Biso   1.000  O
  O84      1.0000 0.82784  0.16583  0.99319  Biso   1.000  O
  O85      1.0000 0.12623  0.99503  0.86227  Biso   1.000  O
  O86      1.0000 0.95706  0.86390  0.16503  Biso   1.000  O
  O87      1.0000 0.12633  0.86433  0.99319  Biso   1.000  O
  O88      1.0000 0.95681  0.16615  0.86227  Biso   1.000  O
  O89      1.0000 0.82798  0.99428  0.16503  Biso   1.000  O
  O90      1.0000 0.68817  0.41448  0.58135  Biso   1.000  O
  O91      1.0000 0.38978  0.58528  0.71227  Biso   1.000  O
  O92      1.0000 0.55895  0.71641  0.40952  Biso   1.000  O
  O93      1.0000 0.50907  0.53451  0.52991  Biso   1.000  O
  O94      1.0000 0.00693  0.04580  0.04463  Biso   1.000  O
  O95      1.0000 0.39029  0.58707  0.40828  Biso   1.000  O
  O96      1.0000 0.38914  0.71704  0.40797  Biso   1.000  O
  O97      1.0000 0.39044  0.41325  0.58240  Biso   1.000  O
  O98      1.0000 0.38939  0.41262  0.71290  Biso   1.000  O
  O99      1.0000 0.56196  0.41369  0.40828  Biso   1.000  O
  O100     1.0000 0.68979  0.41338  0.40797  Biso   1.000  O
  O101     1.0000 0.95405  0.16662  0.16626  Biso   1.000  O
  O102     1.0000 0.82622  0.16693  0.16657  Biso   1.000  O
  O103     1.0000 0.12557  0.16706  0.99215  Biso   1.000  O
  O104     1.0000 0.12661  0.16769  0.86164  Biso   1.000  O
  O105     1.0000 0.12571  0.99324  0.16626  Biso   1.000  O
  O106     1.0000 0.12687  0.86327  0.16657  Biso   1.000  O
