data_image0
_cell_length_a       18.0897
_cell_length_b       18.0897
_cell_length_c       18.0897
_cell_angle_alpha    60
_cell_angle_beta     60
_cell_angle_gamma    60

_symmetry_space_group_name_H-M    "P 1"
_symmetry_int_tables_number       1

loop_
  _symmetry_equiv_pos_as_xyz
  'x, y, z'

loop_
  _atom_site_label
  _atom_site_occupancy
  _atom_site_fract_x
  _atom_site_fract_y
  _atom_site_fract_z
  _atom_site_thermal_displace_type
  _atom_site_B_iso_or_equiv
  _atom_site_type_symbol
  Zn1      1.0000 0.38110  0.20630  0.20630  Biso   1.000  Zn
  Zn2      1.0000 0.20630  0.38110  0.20630  Biso   1.000  Zn
  Zn3      1.0000 0.20630  0.20630  0.38110  Biso   1.000  Zn
  Zn4      1.0000 0.20630  0.20630  0.20630  Biso   1.000  Zn
  Zn5      1.0000 0.79370  0.61890  0.79370  Biso   1.000  Zn
  Zn6      1.0000 0.61890  0.79370  0.79370  Biso   1.000  Zn
  Zn7      1.0000 0.79370  0.79370  0.61890  Biso   1.000  Zn
  Zn8      1.0000 0.79370  0.79370  0.79370  Biso   1.000  Zn
  H1       1.0000 0.35200  0.04240  0.56320  Biso   1.000  H
  H2       1.0000 0.04240  0.35200  0.04240  Biso   1.000  H
  H3       1.0000 0.56320  0.04240  0.35200  Biso   1.000  H
  H4       1.0000 0.04240  0.56320  0.04240  Biso   1.000  H
  H5       1.0000 0.35200  0.56320  0.04240  Biso   1.000  H
  H6       1.0000 0.04240  0.04240  0.56320  Biso   1.000  H
  H7       1.0000 0.56320  0.35200  0.04240  Biso   1.000  H
  H8       1.0000 0.04240  0.04240  0.35200  Biso   1.000  H
  H9       1.0000 0.35200  0.04240  0.04240  Biso   1.000  H
  H10      1.0000 0.04240  0.56320  0.35200  Biso   1.000  H
  H11      1.0000 0.56320  0.04240  0.04240  Biso   1.000  H
  H12      1.0000 0.04240  0.35200  0.56320  Biso   1.000  H
  H13      1.0000 0.95760  0.64800  0.43680  Biso   1.000  H
  H14      1.0000 0.64800  0.95760  0.95760  Biso   1.000  H
  H15      1.0000 0.95760  0.43680  0.64800  Biso   1.000  H
  H16      1.0000 0.43680  0.95760  0.95760  Biso   1.000  H
  H17      1.0000 0.43680  0.64800  0.95760  Biso   1.000  H
  H18      1.0000 0.95760  0.95760  0.43680  Biso   1.000  H
  H19      1.0000 0.64800  0.43680  0.95760  Biso   1.000  H
  H20      1.0000 0.95760  0.95760  0.64800  Biso   1.000  H
  H21      1.0000 0.95760  0.64800  0.95760  Biso   1.000  H
  H22      1.0000 0.43680  0.95760  0.64800  Biso   1.000  H
  H23      1.0000 0.95760  0.43680  0.95760  Biso   1.000  H
  H24      1.0000 0.64800  0.95760  0.43680  Biso   1.000  H
  C1       1.0000 0.41430  0.02590  0.53390  Biso   1.000  C
  C2       1.0000 0.02590  0.41430  0.02590  Biso   1.000  C
  C3       1.0000 0.53390  0.02590  0.41430  Biso   1.000  C
  C4       1.0000 0.02590  0.53390  0.02590  Biso   1.000  C
  C5       1.0000 0.41430  0.53390  0.02590  Biso   1.000  C
  C6       1.0000 0.02590  0.02590  0.53390  Biso   1.000  C
  C7       1.0000 0.53390  0.41430  0.02590  Biso   1.000  C
  C8       1.0000 0.02590  0.02590  0.41430  Biso   1.000  C
  C9       1.0000 0.41430  0.02590  0.02590  Biso   1.000  C
  C10      1.0000 0.02590  0.53390  0.41430  Biso   1.000  C
  C11      1.0000 0.53390  0.02590  0.02590  Biso   1.000  C
  C12      1.0000 0.02590  0.41430  0.53390  Biso   1.000  C
  C13      1.0000 0.97410  0.58570  0.46610  Biso   1.000  C
  C14      1.0000 0.58570  0.97410  0.97410  Biso   1.000  C
  C15      1.0000 0.97410  0.46610  0.58570  Biso   1.000  C
  C16      1.0000 0.46610  0.97410  0.97410  Biso   1.000  C
  C17      1.0000 0.46610  0.58570  0.97410  Biso   1.000  C
  C18      1.0000 0.97410  0.97410  0.46610  Biso   1.000  C
  C19      1.0000 0.58570  0.46610  0.97410  Biso   1.000  C
  C20      1.0000 0.97410  0.97410  0.58570  Biso   1.000  C
  C21      1.0000 0.97410  0.58570  0.97410  Biso   1.000  C
  C22      1.0000 0.46610  0.97410  0.58570  Biso   1.000  C
  C23      1.0000 0.97410  0.46610  0.97410  Biso   1.000  C
  C24      1.0000 0.58570  0.97410  0.46610  Biso   1.000  C
  C25      1.0000 0.38580  0.11420  0.38580  Biso   1.000  C
  C26      1.0000 0.44340  0.05660  0.44340  Biso   1.000  C
  C27      1.0000 0.11420  0.38580  0.11420  Biso   1.000  C
  C28      1.0000 0.05660  0.44340  0.05660  Biso   1.000  C
  C29      1.0000 0.38580  0.38580  0.11420  Biso   1.000  C
  C30      1.0000 0.44340  0.44340  0.05660  Biso   1.000  C
  C31      1.0000 0.11420  0.11420  0.38580  Biso   1.000  C
  C32      1.0000 0.05660  0.05660  0.44340  Biso   1.000  C
  C33      1.0000 0.38580  0.11420  0.11420  Biso   1.000  C
  C34      1.0000 0.44340  0.05660  0.05660  Biso   1.000  C
  C35      1.0000 0.11420  0.38580  0.38580  Biso   1.000  C
  C36      1.0000 0.05660  0.44340  0.44340  Biso   1.000  C
  C37      1.0000 0.88580  0.61420  0.61420  Biso   1.000  C
  C38      1.0000 0.94340  0.55660  0.55660  Biso   1.000  C
  C39      1.0000 0.61420  0.88580  0.88580  Biso   1.000  C
  C40      1.0000 0.55660  0.94340  0.94340  Biso   1.000  C
  C41      1.0000 0.61420  0.61420  0.88580  Biso   1.000  C
  C42      1.0000 0.55660  0.55660  0.94340  Biso   1.000  C
  C43      1.0000 0.88580  0.88580  0.61420  Biso   1.000  C
  C44      1.0000 0.94340  0.94340  0.55660  Biso   1.000  C
  C45      1.0000 0.88580  0.61420  0.88580  Biso   1.000  C
  C46      1.0000 0.94340  0.55660  0.94340  Biso   1.000  C
  C47      1.0000 0.61420  0.88580  0.61420  Biso   1.000  C
  C48      1.0000 0.55660  0.94340  0.55660  Biso   1.000  C
  O1       1.0000 0.25000  0.25000  0.25000  Biso   1.000  O
  O2       1.0000 0.75000  0.75000  0.75000  Biso   1.000  O
  O3       1.0000 0.42610  0.13570  0.30250  Biso   1.000  O
  O4       1.0000 0.13570  0.42610  0.13570  Biso   1.000  O
  O5       1.0000 0.30250  0.13570  0.42610  Biso   1.000  O
  O6       1.0000 0.13570  0.30250  0.13570  Biso   1.000  O
  O7       1.0000 0.42610  0.30250  0.13570  Biso   1.000  O
  O8       1.0000 0.13570  0.13570  0.30250  Biso   1.000  O
  O9       1.0000 0.30250  0.42610  0.13570  Biso   1.000  O
  O10      1.0000 0.13570  0.13570  0.42610  Biso   1.000  O
  O11      1.0000 0.42610  0.13570  0.13570  Biso   1.000  O
  O12      1.0000 0.13570  0.30250  0.42610  Biso   1.000  O
  O13      1.0000 0.30250  0.13570  0.13570  Biso   1.000  O
  O14      1.0000 0.13570  0.42610  0.30250  Biso   1.000  O
  O15      1.0000 0.86430  0.57390  0.69750  Biso   1.000  O
  O16      1.0000 0.57390  0.86430  0.86430  Biso   1.000  O
  O17      1.0000 0.86430  0.69750  0.57390  Biso   1.000  O
  O18      1.0000 0.69750  0.86430  0.86430  Biso   1.000  O
  O19      1.0000 0.69750  0.57390  0.86430  Biso   1.000  O
  O20      1.0000 0.86430  0.86430  0.69750  Biso   1.000  O
  O21      1.0000 0.57390  0.69750  0.86430  Biso   1.000  O
  O22      1.0000 0.86430  0.86430  0.57390  Biso   1.000  O
  O23      1.0000 0.86430  0.57390  0.86430  Biso   1.000  O
  O24      1.0000 0.69750  0.86430  0.57390  Biso   1.000  O
  O25      1.0000 0.86430  0.69750  0.86430  Biso   1.000  O
  O26      1.0000 0.57390  0.86430  0.69750  Biso   1.000  O
  Zn9      1.0000 0.60095  0.39905  0.39905  Biso   1.000  Zn
  Zn10     1.0000 0.42283  0.39905  0.57717  Biso   1.000  Zn
  Zn11     1.0000 0.42283  0.57717  0.39905  Biso   1.000  Zn
  Zn12     1.0000 0.42283  0.39905  0.39905  Biso   1.000  Zn
  Zn13     1.0000 0.86942  0.97623  0.97623  Biso   1.000  Zn
  Zn14     1.0000 0.04754  0.97623  0.79811  Biso   1.000  Zn
  Zn15     1.0000 0.04754  0.97623  0.97623  Biso   1.000  Zn
  Zn16     1.0000 0.04754  0.79811  0.97623  Biso   1.000  Zn
  H25      1.0000 0.79056  0.23402  0.53951  Biso   1.000  H
  H26      1.0000 0.58705  0.23402  0.74302  Biso   1.000  H
  H27      1.0000 0.28156  0.74302  0.23402  Biso   1.000  H
  H28      1.0000 0.28156  0.53951  0.23402  Biso   1.000  H
  H29      1.0000 0.28156  0.53951  0.74302  Biso   1.000  H
  H30      1.0000 0.28156  0.74302  0.53951  Biso   1.000  H
  H31      1.0000 0.79056  0.23402  0.23402  Biso   1.000  H
  H32      1.0000 0.58705  0.23402  0.23402  Biso   1.000  H
  H33      1.0000 0.58705  0.74302  0.23402  Biso   1.000  H
  H34      1.0000 0.79056  0.53951  0.23402  Biso   1.000  H
  H35      1.0000 0.28156  0.23402  0.74302  Biso   1.000  H
  H36      1.0000 0.28156  0.23402  0.53951  Biso   1.000  H
  H37      1.0000 0.67981  0.14126  0.83577  Biso   1.000  H
  H38      1.0000 0.88332  0.14126  0.63226  Biso   1.000  H
  H39      1.0000 0.18881  0.83577  0.14126  Biso   1.000  H
  H40      1.0000 0.18881  0.63226  0.14126  Biso   1.000  H
  H41      1.0000 0.18881  0.14126  0.63226  Biso   1.000  H
  H42      1.0000 0.18881  0.14126  0.83577  Biso   1.000  H
  H43      1.0000 0.67981  0.83577  0.14126  Biso   1.000  H
  H44      1.0000 0.88332  0.63226  0.14126  Biso   1.000  H
  H45      1.0000 0.88332  0.14126  0.14126  Biso   1.000  H
  H46      1.0000 0.67981  0.14126  0.14126  Biso   1.000  H
  H47      1.0000 0.18881  0.83577  0.63226  Biso   1.000  H
  H48      1.0000 0.18881  0.63226  0.83577  Biso   1.000  H
  C49      1.0000 0.76275  0.21472  0.60592  Biso   1.000  C
  C50      1.0000 0.65346  0.21472  0.71520  Biso   1.000  C
  C51      1.0000 0.26226  0.71520  0.21472  Biso   1.000  C
  C52      1.0000 0.26226  0.60592  0.21472  Biso   1.000  C
  C53      1.0000 0.26226  0.60592  0.71520  Biso   1.000  C
  C54      1.0000 0.26226  0.71520  0.60592  Biso   1.000  C
  C55      1.0000 0.76275  0.21472  0.21472  Biso   1.000  C
  C56      1.0000 0.65346  0.21472  0.21472  Biso   1.000  C
  C57      1.0000 0.65346  0.71520  0.21472  Biso   1.000  C
  C58      1.0000 0.76275  0.60592  0.21472  Biso   1.000  C
  C59      1.0000 0.26226  0.21472  0.71520  Biso   1.000  C
  C60      1.0000 0.26226  0.21472  0.60592  Biso   1.000  C
  C61      1.0000 0.70762  0.16056  0.76936  Biso   1.000  C
  C62      1.0000 0.81690  0.16056  0.66008  Biso   1.000  C
  C63      1.0000 0.20811  0.76936  0.16056  Biso   1.000  C
  C64      1.0000 0.20811  0.66008  0.16056  Biso   1.000  C
  C65      1.0000 0.20811  0.16056  0.66008  Biso   1.000  C
  C66      1.0000 0.20811  0.16056  0.76936  Biso   1.000  C
  C67      1.0000 0.70762  0.76936  0.16056  Biso   1.000  C
  C68      1.0000 0.81690  0.66008  0.16056  Biso   1.000  C
  C69      1.0000 0.81690  0.16056  0.16056  Biso   1.000  C
  C70      1.0000 0.70762  0.16056  0.16056  Biso   1.000  C
  C71      1.0000 0.20811  0.76936  0.66008  Biso   1.000  C
  C72      1.0000 0.20811  0.66008  0.76936  Biso   1.000  C
  C73      1.0000 0.60895  0.30200  0.58517  Biso   1.000  C
  C74      1.0000 0.66825  0.24269  0.64448  Biso   1.000  C
  C75      1.0000 0.32577  0.58517  0.30200  Biso   1.000  C
  C76      1.0000 0.26647  0.64448  0.24269  Biso   1.000  C
  C77      1.0000 0.32577  0.58517  0.58517  Biso   1.000  C
  C78      1.0000 0.26647  0.64448  0.64448  Biso   1.000  C
  C79      1.0000 0.60895  0.30200  0.30200  Biso   1.000  C
  C80      1.0000 0.66825  0.24269  0.24269  Biso   1.000  C
  C81      1.0000 0.60895  0.58517  0.30200  Biso   1.000  C
  C82      1.0000 0.66825  0.64448  0.24269  Biso   1.000  C
  C83      1.0000 0.32577  0.30200  0.58517  Biso   1.000  C
  C84      1.0000 0.26647  0.24269  0.64448  Biso   1.000  C
  C85      1.0000 0.86142  0.07329  0.79011  Biso   1.000  C
  C86      1.0000 0.80212  0.13259  0.73081  Biso   1.000  C
  C87      1.0000 0.14460  0.79011  0.07329  Biso   1.000  C
  C88      1.0000 0.20390  0.73081  0.13259  Biso   1.000  C
  C89      1.0000 0.14460  0.07329  0.79011  Biso   1.000  C
  C90      1.0000 0.20390  0.13259  0.73081  Biso   1.000  C
  C91      1.0000 0.86142  0.79011  0.07329  Biso   1.000  C
  C92      1.0000 0.80212  0.73081  0.13259  Biso   1.000  C
  C93      1.0000 0.86142  0.07329  0.07329  Biso   1.000  C
  C94      1.0000 0.80212  0.13259  0.13259  Biso   1.000  C
  C95      1.0000 0.14460  0.79011  0.79011  Biso   1.000  C
  C96      1.0000 0.20390  0.73081  0.73081  Biso   1.000  C
  O27      1.0000 0.64911  0.32469  0.49961  Biso   1.000  O
  O28      1.0000 0.52339  0.32469  0.62533  Biso   1.000  O
  O29      1.0000 0.34847  0.62533  0.32469  Biso   1.000  O
  O30      1.0000 0.34847  0.49961  0.32469  Biso   1.000  O
  O31      1.0000 0.34847  0.49961  0.62533  Biso   1.000  O
  O32      1.0000 0.34847  0.62533  0.49961  Biso   1.000  O
  O33      1.0000 0.64911  0.32469  0.32469  Biso   1.000  O
  O34      1.0000 0.52339  0.32469  0.32469  Biso   1.000  O
  O35      1.0000 0.52339  0.62533  0.32469  Biso   1.000  O
  O36      1.0000 0.64911  0.49961  0.32469  Biso   1.000  O
  O37      1.0000 0.34847  0.32469  0.62533  Biso   1.000  O
  O38      1.0000 0.34847  0.32469  0.49961  Biso   1.000  O
  O39      1.0000 0.82126  0.05059  0.87567  Biso   1.000  O
  O40      1.0000 0.94698  0.05059  0.74995  Biso   1.000  O
  O41      1.0000 0.12190  0.87567  0.05059  Biso   1.000  O
  O42      1.0000 0.12190  0.74995  0.05059  Biso   1.000  O
  O43      1.0000 0.12190  0.05059  0.74995  Biso   1.000  O
  O44      1.0000 0.12190  0.05059  0.87567  Biso   1.000  O
  O45      1.0000 0.82126  0.87567  0.05059  Biso   1.000  O
  O46      1.0000 0.94698  0.74995  0.05059  Biso   1.000  O
  O47      1.0000 0.94698  0.05059  0.05059  Biso   1.000  O
  O48      1.0000 0.82126  0.05059  0.05059  Biso   1.000  O
  O49      1.0000 0.12190  0.87567  0.74995  Biso   1.000  O
  O50      1.0000 0.12190  0.74995  0.87567  Biso   1.000  O
  O51      1.0000 0.46736  0.44358  0.44358  Biso   1.000  O
  O52      1.0000 0.00301  0.93170  0.93170  Biso   1.000  O
