data_image0
_cell_length_a       18.0897
_cell_length_b       18.0897
_cell_length_c       18.0897
_cell_angle_alpha    60
_cell_angle_beta     60
_cell_angle_gamma    60

_symmetry_space_group_name_H-M    "P 1"
_symmetry_int_tables_number       1

loop_
  _symmetry_equiv_pos_as_xyz
  'x, y, z'

loop_
  _atom_site_label
  _atom_site_occupancy
  _atom_site_fract_x
  _atom_site_fract_y
  _atom_site_fract_z
  _atom_site_thermal_displace_type
  _atom_site_B_iso_or_equiv
  _atom_site_type_symbol
  Zn1      1.0000 0.38110  0.20630  0.20630  Biso   1.000  Zn
  Zn2      1.0000 0.20630  0.38110  0.20630  Biso   1.000  Zn
  Zn3      1.0000 0.20630  0.20630  0.38110  Biso   1.000  Zn
  Zn4      1.0000 0.20630  0.20630  0.20630  Biso   1.000  Zn
  Zn5      1.0000 0.79370  0.61890  0.79370  Biso   1.000  Zn
  Zn6      1.0000 0.61890  0.79370  0.79370  Biso   1.000  Zn
  Zn7      1.0000 0.79370  0.79370  0.61890  Biso   1.000  Zn
  Zn8      1.0000 0.79370  0.79370  0.79370  Biso   1.000  Zn
  H1       1.0000 0.35200  0.04240  0.56320  Biso   1.000  H
  H2       1.0000 0.04240  0.35200  0.04240  Biso   1.000  H
  H3       1.0000 0.56320  0.04240  0.35200  Biso   1.000  H
  H4       1.0000 0.04240  0.56320  0.04240  Biso   1.000  H
  H5       1.0000 0.35200  0.56320  0.04240  Biso   1.000  H
  H6       1.0000 0.04240  0.04240  0.56320  Biso   1.000  H
  H7       1.0000 0.56320  0.35200  0.04240  Biso   1.000  H
  H8       1.0000 0.04240  0.04240  0.35200  Biso   1.000  H
  H9       1.0000 0.35200  0.04240  0.04240  Biso   1.000  H
  H10      1.0000 0.04240  0.56320  0.35200  Biso   1.000  H
  H11      1.0000 0.56320  0.04240  0.04240  Biso   1.000  H
  H12      1.0000 0.04240  0.35200  0.56320  Biso   1.000  H
  H13      1.0000 0.95760  0.64800  0.43680  Biso   1.000  H
  H14      1.0000 0.64800  0.95760  0.95760  Biso   1.000  H
  H15      1.0000 0.95760  0.43680  0.64800  Biso   1.000  H
  H16      1.0000 0.43680  0.95760  0.95760  Biso   1.000  H
  H17      1.0000 0.43680  0.64800  0.95760  Biso   1.000  H
  H18      1.0000 0.95760  0.95760  0.43680  Biso   1.000  H
  H19      1.0000 0.64800  0.43680  0.95760  Biso   1.000  H
  H20      1.0000 0.95760  0.95760  0.64800  Biso   1.000  H
  H21      1.0000 0.95760  0.64800  0.95760  Biso   1.000  H
  H22      1.0000 0.43680  0.95760  0.64800  Biso   1.000  H
  H23      1.0000 0.95760  0.43680  0.95760  Biso   1.000  H
  H24      1.0000 0.64800  0.95760  0.43680  Biso   1.000  H
  C1       1.0000 0.41430  0.02590  0.53390  Biso   1.000  C
  C2       1.0000 0.02590  0.41430  0.02590  Biso   1.000  C
  C3       1.0000 0.53390  0.02590  0.41430  Biso   1.000  C
  C4       1.0000 0.02590  0.53390  0.02590  Biso   1.000  C
  C5       1.0000 0.41430  0.53390  0.02590  Biso   1.000  C
  C6       1.0000 0.02590  0.02590  0.53390  Biso   1.000  C
  C7       1.0000 0.53390  0.41430  0.02590  Biso   1.000  C
  C8       1.0000 0.02590  0.02590  0.41430  Biso   1.000  C
  C9       1.0000 0.41430  0.02590  0.02590  Biso   1.000  C
  C10      1.0000 0.02590  0.53390  0.41430  Biso   1.000  C
  C11      1.0000 0.53390  0.02590  0.02590  Biso   1.000  C
  C12      1.0000 0.02590  0.41430  0.53390  Biso   1.000  C
  C13      1.0000 0.97410  0.58570  0.46610  Biso   1.000  C
  C14      1.0000 0.58570  0.97410  0.97410  Biso   1.000  C
  C15      1.0000 0.97410  0.46610  0.58570  Biso   1.000  C
  C16      1.0000 0.46610  0.97410  0.97410  Biso   1.000  C
  C17      1.0000 0.46610  0.58570  0.97410  Biso   1.000  C
  C18      1.0000 0.97410  0.97410  0.46610  Biso   1.000  C
  C19      1.0000 0.58570  0.46610  0.97410  Biso   1.000  C
  C20      1.0000 0.97410  0.97410  0.58570  Biso   1.000  C
  C21      1.0000 0.97410  0.58570  0.97410  Biso   1.000  C
  C22      1.0000 0.46610  0.97410  0.58570  Biso   1.000  C
  C23      1.0000 0.97410  0.46610  0.97410  Biso   1.000  C
  C24      1.0000 0.58570  0.97410  0.46610  Biso   1.000  C
  C25      1.0000 0.38580  0.11420  0.38580  Biso   1.000  C
  C26      1.0000 0.44340  0.05660  0.44340  Biso   1.000  C
  C27      1.0000 0.11420  0.38580  0.11420  Biso   1.000  C
  C28      1.0000 0.05660  0.44340  0.05660  Biso   1.000  C
  C29      1.0000 0.38580  0.38580  0.11420  Biso   1.000  C
  C30      1.0000 0.44340  0.44340  0.05660  Biso   1.000  C
  C31      1.0000 0.11420  0.11420  0.38580  Biso   1.000  C
  C32      1.0000 0.05660  0.05660  0.44340  Biso   1.000  C
  C33      1.0000 0.38580  0.11420  0.11420  Biso   1.000  C
  C34      1.0000 0.44340  0.05660  0.05660  Biso   1.000  C
  C35      1.0000 0.11420  0.38580  0.38580  Biso   1.000  C
  C36      1.0000 0.05660  0.44340  0.44340  Biso   1.000  C
  C37      1.0000 0.88580  0.61420  0.61420  Biso   1.000  C
  C38      1.0000 0.94340  0.55660  0.55660  Biso   1.000  C
  C39      1.0000 0.61420  0.88580  0.88580  Biso   1.000  C
  C40      1.0000 0.55660  0.94340  0.94340  Biso   1.000  C
  C41      1.0000 0.61420  0.61420  0.88580  Biso   1.000  C
  C42      1.0000 0.55660  0.55660  0.94340  Biso   1.000  C
  C43      1.0000 0.88580  0.88580  0.61420  Biso   1.000  C
  C44      1.0000 0.94340  0.94340  0.55660  Biso   1.000  C
  C45      1.0000 0.88580  0.61420  0.88580  Biso   1.000  C
  C46      1.0000 0.94340  0.55660  0.94340  Biso   1.000  C
  C47      1.0000 0.61420  0.88580  0.61420  Biso   1.000  C
  C48      1.0000 0.55660  0.94340  0.55660  Biso   1.000  C
  O1       1.0000 0.25000  0.25000  0.25000  Biso   1.000  O
  O2       1.0000 0.75000  0.75000  0.75000  Biso   1.000  O
  O3       1.0000 0.42610  0.13570  0.30250  Biso   1.000  O
  O4       1.0000 0.13570  0.42610  0.13570  Biso   1.000  O
  O5       1.0000 0.30250  0.13570  0.42610  Biso   1.000  O
  O6       1.0000 0.13570  0.30250  0.13570  Biso   1.000  O
  O7       1.0000 0.42610  0.30250  0.13570  Biso   1.000  O
  O8       1.0000 0.13570  0.13570  0.30250  Biso   1.000  O
  O9       1.0000 0.30250  0.42610  0.13570  Biso   1.000  O
  O10      1.0000 0.13570  0.13570  0.42610  Biso   1.000  O
  O11      1.0000 0.42610  0.13570  0.13570  Biso   1.000  O
  O12      1.0000 0.13570  0.30250  0.42610  Biso   1.000  O
  O13      1.0000 0.30250  0.13570  0.13570  Biso   1.000  O
  O14      1.0000 0.13570  0.42610  0.30250  Biso   1.000  O
  O15      1.0000 0.86430  0.57390  0.69750  Biso   1.000  O
  O16      1.0000 0.57390  0.86430  0.86430  Biso   1.000  O
  O17      1.0000 0.86430  0.69750  0.57390  Biso   1.000  O
  O18      1.0000 0.69750  0.86430  0.86430  Biso   1.000  O
  O19      1.0000 0.69750  0.57390  0.86430  Biso   1.000  O
  O20      1.0000 0.86430  0.86430  0.69750  Biso   1.000  O
  O21      1.0000 0.57390  0.69750  0.86430  Biso   1.000  O
  O22      1.0000 0.86430  0.86430  0.57390  Biso   1.000  O
  O23      1.0000 0.86430  0.57390  0.86430  Biso   1.000  O
  O24      1.0000 0.69750  0.86430  0.57390  Biso   1.000  O
  O25      1.0000 0.86430  0.69750  0.86430  Biso   1.000  O
  O26      1.0000 0.57390  0.86430  0.69750  Biso   1.000  O
  Zn9      1.0000 0.82908  0.00000  1.00000  Biso   1.000  Zn
  Zn10     1.0000 0.41672  0.60350  0.60754  Biso   1.000  Zn
  Zn11     1.0000 0.82860  0.17850  0.00070  Biso   1.000  Zn
  Zn12     1.0000 0.82874  0.00025  0.17925  Biso   1.000  Zn
  Zn13     1.0000 0.00463  0.00070  0.00070  Biso   1.000  Zn
  Zn14     1.0000 0.24117  0.60281  0.60684  Biso   1.000  Zn
  Zn15     1.0000 0.41706  0.60325  0.42829  Biso   1.000  Zn
  Zn16     1.0000 0.41720  0.42500  0.60684  Biso   1.000  Zn
  H25      1.0000 0.66054  0.14051  0.37126  Biso   1.000  H
  H26      1.0000 0.19300  0.83137  0.14202  Biso   1.000  H
  H27      1.0000 0.96672  0.37014  0.83102  Biso   1.000  H
  H28      1.0000 0.27863  0.77270  0.23628  Biso   1.000  H
  H29      1.0000 0.58545  0.23414  0.46552  Biso   1.000  H
  H30      1.0000 0.05306  0.46165  0.77652  Biso   1.000  H
  H31      1.0000 0.58526  0.46300  0.23628  Biso   1.000  H
  H32      1.0000 0.05280  0.77213  0.46552  Biso   1.000  H
  H33      1.0000 0.27908  0.23336  0.77652  Biso   1.000  H
  H34      1.0000 0.96717  0.83080  0.37126  Biso   1.000  H
  H35      1.0000 0.66036  0.36937  0.14202  Biso   1.000  H
  H36      1.0000 0.19274  0.14185  0.83102  Biso   1.000  H
  H37      1.0000 0.66841  0.36323  0.83743  Biso   1.000  H
  H38      1.0000 0.66270  0.14288  0.83009  Biso   1.000  H
  H39      1.0000 0.66884  0.83720  0.36434  Biso   1.000  H
  H40      1.0000 0.66296  0.83044  0.14305  Biso   1.000  H
  H41      1.0000 0.18790  0.83851  0.83743  Biso   1.000  H
  H42      1.0000 0.97126  0.83122  0.83009  Biso   1.000  H
  H43      1.0000 0.05790  0.76499  0.77011  Biso   1.000  H
  H44      1.0000 0.27454  0.77228  0.77745  Biso   1.000  H
  H45      1.0000 0.57696  0.76630  0.24321  Biso   1.000  H
  H46      1.0000 0.58284  0.77306  0.46449  Biso   1.000  H
  H47      1.0000 0.57739  0.24028  0.77011  Biso   1.000  H
  H48      1.0000 0.58310  0.46062  0.77745  Biso   1.000  H
  C49      1.0000 0.64520  0.20398  0.34377  Biso   1.000  C
  C50      1.0000 0.16581  0.81588  0.20569  Biso   1.000  C
  C51      1.0000 0.02935  0.34280  0.81562  Biso   1.000  C
  C52      1.0000 0.21602  0.78797  0.26377  Biso   1.000  C
  C53      1.0000 0.60071  0.26168  0.40186  Biso   1.000  C
  C54      1.0000 0.08031  0.39821  0.79192  Biso   1.000  C
  C55      1.0000 0.60060  0.39953  0.26377  Biso   1.000  C
  C56      1.0000 0.07999  0.78763  0.40186  Biso   1.000  C
  C57      1.0000 0.21645  0.26070  0.79192  Biso   1.000  C
  C58      1.0000 0.02978  0.81553  0.34377  Biso   1.000  C
  C59      1.0000 0.64509  0.34183  0.20569  Biso   1.000  C
  C60      1.0000 0.16549  0.20529  0.81562  Biso   1.000  C
  C61      1.0000 0.73244  0.18964  0.90203  Biso   1.000  C
  C62      1.0000 0.67431  0.24526  0.84270  Biso   1.000  C
  C63      1.0000 0.64904  0.33930  0.81738  Biso   1.000  C
  C64      1.0000 0.64568  0.20622  0.81304  Biso   1.000  C
  C65      1.0000 0.73268  0.90196  0.19018  Biso   1.000  C
  C66      1.0000 0.67464  0.84274  0.24589  Biso   1.000  C
  C67      1.0000 0.64947  0.81729  0.34026  Biso   1.000  C
  C68      1.0000 0.64600  0.81330  0.20662  Biso   1.000  C
  C69      1.0000 0.01654  0.90268  0.90203  Biso   1.000  C
  C70      1.0000 0.07183  0.84375  0.84270  Biso   1.000  C
  C71      1.0000 0.16456  0.81860  0.81738  Biso   1.000  C
  C72      1.0000 0.03372  0.81428  0.81304  Biso   1.000  C
  C73      1.0000 0.22926  0.70082  0.70551  Biso   1.000  C
  C74      1.0000 0.17397  0.75975  0.76484  Biso   1.000  C
  C75      1.0000 0.08124  0.78491  0.79016  Biso   1.000  C
  C76      1.0000 0.21208  0.78922  0.79450  Biso   1.000  C
  C77      1.0000 0.51312  0.70154  0.41736  Biso   1.000  C
  C78      1.0000 0.57116  0.76076  0.36165  Biso   1.000  C
  C79      1.0000 0.59633  0.78621  0.26729  Biso   1.000  C
  C80      1.0000 0.59980  0.79020  0.40093  Biso   1.000  C
  C81      1.0000 0.51336  0.41387  0.70551  Biso   1.000  C
  C82      1.0000 0.57149  0.35824  0.76484  Biso   1.000  C
  C83      1.0000 0.59676  0.26421  0.79016  Biso   1.000  C
  C84      1.0000 0.60012  0.39728  0.79450  Biso   1.000  C
  C85      1.0000 0.73122  0.18820  0.18946  Biso   1.000  C
  C86      1.0000 0.67811  0.24267  0.24429  Biso   1.000  C
  C87      1.0000 0.01420  0.90238  0.18946  Biso   1.000  C
  C88      1.0000 0.06794  0.84892  0.24429  Biso   1.000  C
  C89      1.0000 0.01396  0.18892  0.90244  Biso   1.000  C
  C90      1.0000 0.06761  0.24365  0.84890  Biso   1.000  C
  C91      1.0000 0.23160  0.70113  0.41808  Biso   1.000  C
  C92      1.0000 0.17786  0.75458  0.36325  Biso   1.000  C
  C93      1.0000 0.51458  0.41530  0.41808  Biso   1.000  C
  C94      1.0000 0.56769  0.36084  0.36325  Biso   1.000  C
  C95      1.0000 0.23184  0.41459  0.70510  Biso   1.000  C
  C96      1.0000 0.17819  0.35985  0.75864  Biso   1.000  C
  O27      1.0000 0.75536  0.22774  0.09829  Biso   1.000  O
  O28      1.0000 0.92452  0.92656  0.22893  Biso   1.000  O
  O29      1.0000 0.05308  0.09806  0.92682  Biso   1.000  O
  O30      1.0000 0.19258  0.67662  0.50925  Biso   1.000  O
  O31      1.0000 0.49033  0.50619  0.37861  Biso   1.000  O
  O32      1.0000 0.32153  0.37534  0.68072  Biso   1.000  O
  O33      1.0000 0.49044  0.37577  0.50925  Biso   1.000  O
  O34      1.0000 0.32128  0.67695  0.37861  Biso   1.000  O
  O35      1.0000 0.19272  0.50544  0.68072  Biso   1.000  O
  O36      1.0000 0.05322  0.92688  0.09829  Biso   1.000  O
  O37      1.0000 0.75547  0.09731  0.22893  Biso   1.000  O
  O38      1.0000 0.92427  0.22816  0.92682  Biso   1.000  O
  O39      1.0000 0.87450  0.04665  0.04696  Biso   1.000  O
  O40      1.0000 0.37130  0.55685  0.56058  Biso   1.000  O
  O41      1.0000 0.75598  0.09911  0.92559  Biso   1.000  O
  O42      1.0000 0.75483  0.22879  0.92528  Biso   1.000  O
  O43      1.0000 0.75612  0.92566  0.09933  Biso   1.000  O
  O44      1.0000 0.75508  0.92502  0.22956  Biso   1.000  O
  O45      1.0000 0.92728  0.92609  0.92559  Biso   1.000  O
  O46      1.0000 0.05483  0.92578  0.92528  Biso   1.000  O
  O47      1.0000 0.31852  0.67741  0.68195  Biso   1.000  O
  O48      1.0000 0.19097  0.67772  0.68226  Biso   1.000  O
  O49      1.0000 0.48968  0.67785  0.50821  Biso   1.000  O
  O50      1.0000 0.49072  0.67848  0.37798  Biso   1.000  O
  O51      1.0000 0.48982  0.50440  0.68195  Biso   1.000  O
  O52      1.0000 0.49097  0.37471  0.68226  Biso   1.000  O
