data_image0
_cell_length_a       18.0897
_cell_length_b       18.0897
_cell_length_c       18.0897
_cell_angle_alpha    60
_cell_angle_beta     60
_cell_angle_gamma    60

_symmetry_space_group_name_H-M    "P 1"
_symmetry_int_tables_number       1

loop_
  _symmetry_equiv_pos_as_xyz
  'x, y, z'

loop_
  _atom_site_label
  _atom_site_occupancy
  _atom_site_fract_x
  _atom_site_fract_y
  _atom_site_fract_z
  _atom_site_thermal_displace_type
  _atom_site_B_iso_or_equiv
  _atom_site_type_symbol
  C1       1.0000 0.38110  0.20630  0.20630  Biso   1.000  C
  C2       1.0000 0.20630  0.38110  0.20630  Biso   1.000  C
  C3       1.0000 0.20630  0.20630  0.38110  Biso   1.000  C
  C4       1.0000 0.20630  0.20630  0.20630  Biso   1.000  C
  C5       1.0000 0.79370  0.61890  0.79370  Biso   1.000  C
  C6       1.0000 0.61890  0.79370  0.79370  Biso   1.000  C
  C7       1.0000 0.79370  0.79370  0.61890  Biso   1.000  C
  C8       1.0000 0.79370  0.79370  0.79370  Biso   1.000  C
  C9       1.0000 0.35200  0.04240  0.56320  Biso   1.000  C
  C10      1.0000 0.04240  0.35200  0.04240  Biso   1.000  C
  C11      1.0000 0.56320  0.04240  0.35200  Biso   1.000  C
  C12      1.0000 0.04240  0.56320  0.04240  Biso   1.000  C
  C13      1.0000 0.35200  0.56320  0.04240  Biso   1.000  C
  C14      1.0000 0.04240  0.04240  0.56320  Biso   1.000  C
  C15      1.0000 0.56320  0.35200  0.04240  Biso   1.000  C
  C16      1.0000 0.04240  0.04240  0.35200  Biso   1.000  C
  C17      1.0000 0.35200  0.04240  0.04240  Biso   1.000  C
  C18      1.0000 0.04240  0.56320  0.35200  Biso   1.000  C
  C19      1.0000 0.56320  0.04240  0.04240  Biso   1.000  C
  C20      1.0000 0.04240  0.35200  0.56320  Biso   1.000  C
  C21      1.0000 0.95760  0.64800  0.43680  Biso   1.000  C
  C22      1.0000 0.64800  0.95760  0.95760  Biso   1.000  C
  C23      1.0000 0.95760  0.43680  0.64800  Biso   1.000  C
  C24      1.0000 0.43680  0.95760  0.95760  Biso   1.000  C
  C25      1.0000 0.43680  0.64800  0.95760  Biso   1.000  C
  C26      1.0000 0.95760  0.95760  0.43680  Biso   1.000  C
  C27      1.0000 0.64800  0.43680  0.95760  Biso   1.000  C
  C28      1.0000 0.95760  0.95760  0.64800  Biso   1.000  C
  C29      1.0000 0.95760  0.64800  0.95760  Biso   1.000  C
  C30      1.0000 0.43680  0.95760  0.64800  Biso   1.000  C
  C31      1.0000 0.95760  0.43680  0.95760  Biso   1.000  C
  C32      1.0000 0.64800  0.95760  0.43680  Biso   1.000  C
  C33      1.0000 0.41430  0.02590  0.53390  Biso   1.000  C
  C34      1.0000 0.02590  0.41430  0.02590  Biso   1.000  C
  C35      1.0000 0.53390  0.02590  0.41430  Biso   1.000  C
  C36      1.0000 0.02590  0.53390  0.02590  Biso   1.000  C
  C37      1.0000 0.41430  0.53390  0.02590  Biso   1.000  C
  C38      1.0000 0.02590  0.02590  0.53390  Biso   1.000  C
  C39      1.0000 0.53390  0.41430  0.02590  Biso   1.000  C
  C40      1.0000 0.02590  0.02590  0.41430  Biso   1.000  C
  C41      1.0000 0.41430  0.02590  0.02590  Biso   1.000  C
  C42      1.0000 0.02590  0.53390  0.41430  Biso   1.000  C
  C43      1.0000 0.53390  0.02590  0.02590  Biso   1.000  C
  C44      1.0000 0.02590  0.41430  0.53390  Biso   1.000  C
  C45      1.0000 0.97410  0.58570  0.46610  Biso   1.000  C
  C46      1.0000 0.58570  0.97410  0.97410  Biso   1.000  C
  C47      1.0000 0.97410  0.46610  0.58570  Biso   1.000  C
  C48      1.0000 0.46610  0.97410  0.97410  Biso   1.000  C
  C49      1.0000 0.46610  0.58570  0.97410  Biso   1.000  C
  C50      1.0000 0.97410  0.97410  0.46610  Biso   1.000  C
  C51      1.0000 0.58570  0.46610  0.97410  Biso   1.000  C
  C52      1.0000 0.97410  0.97410  0.58570  Biso   1.000  C
  C53      1.0000 0.97410  0.58570  0.97410  Biso   1.000  C
  C54      1.0000 0.46610  0.97410  0.58570  Biso   1.000  C
  C55      1.0000 0.97410  0.46610  0.97410  Biso   1.000  C
  C56      1.0000 0.58570  0.97410  0.46610  Biso   1.000  C
  C57      1.0000 0.38580  0.11420  0.38580  Biso   1.000  C
  C58      1.0000 0.44340  0.05660  0.44340  Biso   1.000  C
  C59      1.0000 0.11420  0.38580  0.11420  Biso   1.000  C
  C60      1.0000 0.05660  0.44340  0.05660  Biso   1.000  C
  C61      1.0000 0.38580  0.38580  0.11420  Biso   1.000  C
  C62      1.0000 0.44340  0.44340  0.05660  Biso   1.000  C
  C63      1.0000 0.11420  0.11420  0.38580  Biso   1.000  C
  C64      1.0000 0.05660  0.05660  0.44340  Biso   1.000  C
  C65      1.0000 0.38580  0.11420  0.11420  Biso   1.000  C
  C66      1.0000 0.44340  0.05660  0.05660  Biso   1.000  C
  C67      1.0000 0.11420  0.38580  0.38580  Biso   1.000  C
  C68      1.0000 0.05660  0.44340  0.44340  Biso   1.000  C
  C69      1.0000 0.88580  0.61420  0.61420  Biso   1.000  C
  C70      1.0000 0.94340  0.55660  0.55660  Biso   1.000  C
  C71      1.0000 0.61420  0.88580  0.88580  Biso   1.000  C
  C72      1.0000 0.55660  0.94340  0.94340  Biso   1.000  C
  C73      1.0000 0.61420  0.61420  0.88580  Biso   1.000  C
  C74      1.0000 0.55660  0.55660  0.94340  Biso   1.000  C
  C75      1.0000 0.88580  0.88580  0.61420  Biso   1.000  C
  C76      1.0000 0.94340  0.94340  0.55660  Biso   1.000  C
  C77      1.0000 0.88580  0.61420  0.88580  Biso   1.000  C
  C78      1.0000 0.94340  0.55660  0.94340  Biso   1.000  C
  C79      1.0000 0.61420  0.88580  0.61420  Biso   1.000  C
  C80      1.0000 0.55660  0.94340  0.55660  Biso   1.000  C
  C81      1.0000 0.25000  0.25000  0.25000  Biso   1.000  C
  C82      1.0000 0.75000  0.75000  0.75000  Biso   1.000  C
  C83      1.0000 0.42610  0.13570  0.30250  Biso   1.000  C
  C84      1.0000 0.13570  0.42610  0.13570  Biso   1.000  C
  C85      1.0000 0.30250  0.13570  0.42610  Biso   1.000  C
  C86      1.0000 0.13570  0.30250  0.13570  Biso   1.000  C
  C87      1.0000 0.42610  0.30250  0.13570  Biso   1.000  C
  C88      1.0000 0.13570  0.13570  0.30250  Biso   1.000  C
  C89      1.0000 0.30250  0.42610  0.13570  Biso   1.000  C
  C90      1.0000 0.13570  0.13570  0.42610  Biso   1.000  C
  C91      1.0000 0.42610  0.13570  0.13570  Biso   1.000  C
  C92      1.0000 0.13570  0.30250  0.42610  Biso   1.000  C
  C93      1.0000 0.30250  0.13570  0.13570  Biso   1.000  C
  C94      1.0000 0.13570  0.42610  0.30250  Biso   1.000  C
  C95      1.0000 0.86430  0.57390  0.69750  Biso   1.000  C
  C96      1.0000 0.57390  0.86430  0.86430  Biso   1.000  C
  C97      1.0000 0.86430  0.69750  0.57390  Biso   1.000  C
  C98      1.0000 0.69750  0.86430  0.86430  Biso   1.000  C
  C99      1.0000 0.69750  0.57390  0.86430  Biso   1.000  C
  C100     1.0000 0.86430  0.86430  0.69750  Biso   1.000  C
  C101     1.0000 0.57390  0.69750  0.86430  Biso   1.000  C
  C102     1.0000 0.86430  0.86430  0.57390  Biso   1.000  C
  C103     1.0000 0.86430  0.57390  0.86430  Biso   1.000  C
  C104     1.0000 0.69750  0.86430  0.57390  Biso   1.000  C
  C105     1.0000 0.86430  0.69750  0.86430  Biso   1.000  C
  C106     1.0000 0.57390  0.86430  0.69750  Biso   1.000  C
  O1       1.0000 0.00707  1.00000  0.00000  Biso   1.000  O
  O2       1.0000 0.00707  0.00000  0.17787  Biso   1.000  O
  O3       1.0000 0.82919  0.00000  0.17787  Biso   1.000  O
  O4       1.0000 0.00707  0.82213  0.17787  Biso   1.000  O
  O5       1.0000 0.43027  0.42323  0.77897  Biso   1.000  O
  O6       1.0000 0.43027  0.42323  0.60110  Biso   1.000  O
  O7       1.0000 0.43027  0.60110  0.60110  Biso   1.000  O
  O8       1.0000 0.60814  0.42323  0.60110  Biso   1.000  O
  O9       1.0000 0.17237  0.16531  0.83486  Biso   1.000  O
  O10      1.0000 0.17237  0.16531  0.03671  Biso   1.000  O
  O11      1.0000 0.66404  0.85884  0.34319  Biso   1.000  O
  O12      1.0000 0.86589  0.65699  0.34319  Biso   1.000  O
  O13      1.0000 0.17237  0.65699  0.03671  Biso   1.000  O
  O14      1.0000 0.17237  0.85884  0.83486  Biso   1.000  O
  O15      1.0000 0.66404  0.16531  0.34319  Biso   1.000  O
  O16      1.0000 0.86589  0.16531  0.34319  Biso   1.000  O
  O17      1.0000 0.17237  0.85884  0.34319  Biso   1.000  O
  O18      1.0000 0.17237  0.65699  0.34319  Biso   1.000  O
  O19      1.0000 0.66404  0.16531  0.03671  Biso   1.000  O
  O20      1.0000 0.86589  0.16531  0.83486  Biso   1.000  O
  O21      1.0000 0.26497  0.25791  0.94411  Biso   1.000  O
  O22      1.0000 0.26497  0.25791  0.74226  Biso   1.000  O
  O23      1.0000 0.57144  0.76624  0.43578  Biso   1.000  O
  O24      1.0000 0.77330  0.56439  0.43578  Biso   1.000  O
  O25      1.0000 0.77330  0.25791  0.74226  Biso   1.000  O
  O26      1.0000 0.57144  0.25791  0.94411  Biso   1.000  O
  O27      1.0000 0.26497  0.76624  0.43578  Biso   1.000  O
  O28      1.0000 0.26497  0.56439  0.43578  Biso   1.000  O
  O29      1.0000 0.57144  0.25791  0.43578  Biso   1.000  O
  O30      1.0000 0.77330  0.25791  0.43578  Biso   1.000  O
  O31      1.0000 0.26497  0.76624  0.74226  Biso   1.000  O
  O32      1.0000 0.26497  0.56439  0.94411  Biso   1.000  O
  O33      1.0000 0.19119  0.18413  0.86201  Biso   1.000  O
  O34      1.0000 0.19119  0.18413  0.97192  Biso   1.000  O
  O35      1.0000 0.69120  0.79405  0.36200  Biso   1.000  O
  O36      1.0000 0.80111  0.68414  0.36200  Biso   1.000  O
  O37      1.0000 0.19119  0.68414  0.97192  Biso   1.000  O
  O38      1.0000 0.19119  0.79405  0.86201  Biso   1.000  O
  O39      1.0000 0.69120  0.18413  0.36200  Biso   1.000  O
  O40      1.0000 0.80111  0.18413  0.36200  Biso   1.000  O
  O41      1.0000 0.19119  0.79405  0.36200  Biso   1.000  O
  O42      1.0000 0.19119  0.68414  0.36200  Biso   1.000  O
  O43      1.0000 0.69120  0.18413  0.97192  Biso   1.000  O
  O44      1.0000 0.80111  0.18413  0.86201  Biso   1.000  O
  O45      1.0000 0.24615  0.23910  0.91696  Biso   1.000  O
  O46      1.0000 0.24615  0.23910  0.80705  Biso   1.000  O
  O47      1.0000 0.63623  0.73909  0.41697  Biso   1.000  O
  O48      1.0000 0.74614  0.62917  0.41697  Biso   1.000  O
  O49      1.0000 0.74614  0.23910  0.80705  Biso   1.000  O
  O50      1.0000 0.63623  0.23910  0.91696  Biso   1.000  O
  O51      1.0000 0.24615  0.73909  0.41697  Biso   1.000  O
  O52      1.0000 0.24615  0.62917  0.41697  Biso   1.000  O
  O53      1.0000 0.63623  0.23910  0.41697  Biso   1.000  O
  O54      1.0000 0.74614  0.23910  0.41697  Biso   1.000  O
  O55      1.0000 0.24615  0.73909  0.80705  Biso   1.000  O
  O56      1.0000 0.24615  0.62917  0.91696  Biso   1.000  O
  O57      1.0000 0.10439  0.09733  0.99161  Biso   1.000  O
  O58      1.0000 0.16378  0.15672  0.93222  Biso   1.000  O
  O59      1.0000 0.82079  0.81374  0.27520  Biso   1.000  O
  O60      1.0000 0.76140  0.75435  0.33459  Biso   1.000  O
  O61      1.0000 0.10439  0.81374  0.99161  Biso   1.000  O
  O62      1.0000 0.16378  0.75435  0.93222  Biso   1.000  O
  O63      1.0000 0.82079  0.09733  0.27520  Biso   1.000  O
  O64      1.0000 0.76140  0.15672  0.33459  Biso   1.000  O
  O65      1.0000 0.10439  0.81374  0.27520  Biso   1.000  O
  O66      1.0000 0.16378  0.75435  0.33459  Biso   1.000  O
  O67      1.0000 0.82079  0.09733  0.99161  Biso   1.000  O
  O68      1.0000 0.76140  0.15672  0.93222  Biso   1.000  O
  O69      1.0000 0.33295  0.32590  0.78736  Biso   1.000  O
  O70      1.0000 0.27356  0.26651  0.84675  Biso   1.000  O
  O71      1.0000 0.61654  0.60949  0.50377  Biso   1.000  O
  O72      1.0000 0.67593  0.66888  0.44438  Biso   1.000  O
  O73      1.0000 0.61654  0.32590  0.78736  Biso   1.000  O
  O74      1.0000 0.67593  0.26651  0.84675  Biso   1.000  O
  O75      1.0000 0.33295  0.60949  0.50377  Biso   1.000  O
  O76      1.0000 0.27356  0.66888  0.44438  Biso   1.000  O
  O77      1.0000 0.61654  0.32590  0.50377  Biso   1.000  O
  O78      1.0000 0.67593  0.26651  0.44438  Biso   1.000  O
  O79      1.0000 0.33295  0.60949  0.78736  Biso   1.000  O
  O80      1.0000 0.27356  0.66888  0.84675  Biso   1.000  O
  O81      1.0000 0.96259  0.95553  0.13341  Biso   1.000  O
  O82      1.0000 0.47475  0.46769  0.64556  Biso   1.000  O
  O83      1.0000 0.08171  0.07465  0.95146  Biso   1.000  O
  O84      1.0000 0.08171  0.07465  0.07712  Biso   1.000  O
  O85      1.0000 0.78064  0.89925  0.25252  Biso   1.000  O
  O86      1.0000 0.90630  0.77359  0.25252  Biso   1.000  O
  O87      1.0000 0.08171  0.77359  0.07712  Biso   1.000  O
  O88      1.0000 0.08171  0.89925  0.95146  Biso   1.000  O
  O89      1.0000 0.78064  0.07465  0.25252  Biso   1.000  O
  O90      1.0000 0.90630  0.07465  0.25252  Biso   1.000  O
  O91      1.0000 0.08171  0.89925  0.25252  Biso   1.000  O
  O92      1.0000 0.08171  0.77359  0.25252  Biso   1.000  O
  O93      1.0000 0.78064  0.07465  0.07712  Biso   1.000  O
  O94      1.0000 0.90630  0.07465  0.95146  Biso   1.000  O
  O95      1.0000 0.35563  0.34857  0.82751  Biso   1.000  O
  O96      1.0000 0.35563  0.34857  0.70185  Biso   1.000  O
  O97      1.0000 0.53103  0.64964  0.52645  Biso   1.000  O
  O98      1.0000 0.65670  0.52398  0.52645  Biso   1.000  O
  O99      1.0000 0.65670  0.34857  0.70185  Biso   1.000  O
  O100     1.0000 0.53103  0.34857  0.82751  Biso   1.000  O
  O101     1.0000 0.35563  0.64964  0.52645  Biso   1.000  O
  O102     1.0000 0.35563  0.52398  0.52645  Biso   1.000  O
  O103     1.0000 0.53103  0.34857  0.52645  Biso   1.000  O
  O104     1.0000 0.65670  0.34857  0.52645  Biso   1.000  O
  O105     1.0000 0.35563  0.64964  0.70185  Biso   1.000  O
  O106     1.0000 0.35563  0.52398  0.82751  Biso   1.000  O
