data_image0
_cell_length_a       18.0897
_cell_length_b       18.0897
_cell_length_c       18.0897
_cell_angle_alpha    60
_cell_angle_beta     60
_cell_angle_gamma    60

_symmetry_space_group_name_H-M    "P 1"
_symmetry_int_tables_number       1

loop_
  _symmetry_equiv_pos_as_xyz
  'x, y, z'

loop_
  _atom_site_label
  _atom_site_occupancy
  _atom_site_fract_x
  _atom_site_fract_y
  _atom_site_fract_z
  _atom_site_thermal_displace_type
  _atom_site_B_iso_or_equiv
  _atom_site_type_symbol
  C1       1.0000 0.38110  0.20630  0.20630  Biso   1.000  C
  C2       1.0000 0.20630  0.38110  0.20630  Biso   1.000  C
  C3       1.0000 0.20630  0.20630  0.38110  Biso   1.000  C
  C4       1.0000 0.20630  0.20630  0.20630  Biso   1.000  C
  C5       1.0000 0.79370  0.61890  0.79370  Biso   1.000  C
  C6       1.0000 0.61890  0.79370  0.79370  Biso   1.000  C
  C7       1.0000 0.79370  0.79370  0.61890  Biso   1.000  C
  C8       1.0000 0.79370  0.79370  0.79370  Biso   1.000  C
  C9       1.0000 0.35200  0.04240  0.56320  Biso   1.000  C
  C10      1.0000 0.04240  0.35200  0.04240  Biso   1.000  C
  C11      1.0000 0.56320  0.04240  0.35200  Biso   1.000  C
  C12      1.0000 0.04240  0.56320  0.04240  Biso   1.000  C
  C13      1.0000 0.35200  0.56320  0.04240  Biso   1.000  C
  C14      1.0000 0.04240  0.04240  0.56320  Biso   1.000  C
  C15      1.0000 0.56320  0.35200  0.04240  Biso   1.000  C
  C16      1.0000 0.04240  0.04240  0.35200  Biso   1.000  C
  C17      1.0000 0.35200  0.04240  0.04240  Biso   1.000  C
  C18      1.0000 0.04240  0.56320  0.35200  Biso   1.000  C
  C19      1.0000 0.56320  0.04240  0.04240  Biso   1.000  C
  C20      1.0000 0.04240  0.35200  0.56320  Biso   1.000  C
  C21      1.0000 0.95760  0.64800  0.43680  Biso   1.000  C
  C22      1.0000 0.64800  0.95760  0.95760  Biso   1.000  C
  C23      1.0000 0.95760  0.43680  0.64800  Biso   1.000  C
  C24      1.0000 0.43680  0.95760  0.95760  Biso   1.000  C
  C25      1.0000 0.43680  0.64800  0.95760  Biso   1.000  C
  C26      1.0000 0.95760  0.95760  0.43680  Biso   1.000  C
  C27      1.0000 0.64800  0.43680  0.95760  Biso   1.000  C
  C28      1.0000 0.95760  0.95760  0.64800  Biso   1.000  C
  C29      1.0000 0.95760  0.64800  0.95760  Biso   1.000  C
  C30      1.0000 0.43680  0.95760  0.64800  Biso   1.000  C
  C31      1.0000 0.95760  0.43680  0.95760  Biso   1.000  C
  C32      1.0000 0.64800  0.95760  0.43680  Biso   1.000  C
  C33      1.0000 0.41430  0.02590  0.53390  Biso   1.000  C
  C34      1.0000 0.02590  0.41430  0.02590  Biso   1.000  C
  C35      1.0000 0.53390  0.02590  0.41430  Biso   1.000  C
  C36      1.0000 0.02590  0.53390  0.02590  Biso   1.000  C
  C37      1.0000 0.41430  0.53390  0.02590  Biso   1.000  C
  C38      1.0000 0.02590  0.02590  0.53390  Biso   1.000  C
  C39      1.0000 0.53390  0.41430  0.02590  Biso   1.000  C
  C40      1.0000 0.02590  0.02590  0.41430  Biso   1.000  C
  C41      1.0000 0.41430  0.02590  0.02590  Biso   1.000  C
  C42      1.0000 0.02590  0.53390  0.41430  Biso   1.000  C
  C43      1.0000 0.53390  0.02590  0.02590  Biso   1.000  C
  C44      1.0000 0.02590  0.41430  0.53390  Biso   1.000  C
  C45      1.0000 0.97410  0.58570  0.46610  Biso   1.000  C
  C46      1.0000 0.58570  0.97410  0.97410  Biso   1.000  C
  C47      1.0000 0.97410  0.46610  0.58570  Biso   1.000  C
  C48      1.0000 0.46610  0.97410  0.97410  Biso   1.000  C
  C49      1.0000 0.46610  0.58570  0.97410  Biso   1.000  C
  C50      1.0000 0.97410  0.97410  0.46610  Biso   1.000  C
  C51      1.0000 0.58570  0.46610  0.97410  Biso   1.000  C
  C52      1.0000 0.97410  0.97410  0.58570  Biso   1.000  C
  C53      1.0000 0.97410  0.58570  0.97410  Biso   1.000  C
  C54      1.0000 0.46610  0.97410  0.58570  Biso   1.000  C
  C55      1.0000 0.97410  0.46610  0.97410  Biso   1.000  C
  C56      1.0000 0.58570  0.97410  0.46610  Biso   1.000  C
  C57      1.0000 0.38580  0.11420  0.38580  Biso   1.000  C
  C58      1.0000 0.44340  0.05660  0.44340  Biso   1.000  C
  C59      1.0000 0.11420  0.38580  0.11420  Biso   1.000  C
  C60      1.0000 0.05660  0.44340  0.05660  Biso   1.000  C
  C61      1.0000 0.38580  0.38580  0.11420  Biso   1.000  C
  C62      1.0000 0.44340  0.44340  0.05660  Biso   1.000  C
  C63      1.0000 0.11420  0.11420  0.38580  Biso   1.000  C
  C64      1.0000 0.05660  0.05660  0.44340  Biso   1.000  C
  C65      1.0000 0.38580  0.11420  0.11420  Biso   1.000  C
  C66      1.0000 0.44340  0.05660  0.05660  Biso   1.000  C
  C67      1.0000 0.11420  0.38580  0.38580  Biso   1.000  C
  C68      1.0000 0.05660  0.44340  0.44340  Biso   1.000  C
  C69      1.0000 0.88580  0.61420  0.61420  Biso   1.000  C
  C70      1.0000 0.94340  0.55660  0.55660  Biso   1.000  C
  C71      1.0000 0.61420  0.88580  0.88580  Biso   1.000  C
  C72      1.0000 0.55660  0.94340  0.94340  Biso   1.000  C
  C73      1.0000 0.61420  0.61420  0.88580  Biso   1.000  C
  C74      1.0000 0.55660  0.55660  0.94340  Biso   1.000  C
  C75      1.0000 0.88580  0.88580  0.61420  Biso   1.000  C
  C76      1.0000 0.94340  0.94340  0.55660  Biso   1.000  C
  C77      1.0000 0.88580  0.61420  0.88580  Biso   1.000  C
  C78      1.0000 0.94340  0.55660  0.94340  Biso   1.000  C
  C79      1.0000 0.61420  0.88580  0.61420  Biso   1.000  C
  C80      1.0000 0.55660  0.94340  0.55660  Biso   1.000  C
  C81      1.0000 0.25000  0.25000  0.25000  Biso   1.000  C
  C82      1.0000 0.75000  0.75000  0.75000  Biso   1.000  C
  C83      1.0000 0.42610  0.13570  0.30250  Biso   1.000  C
  C84      1.0000 0.13570  0.42610  0.13570  Biso   1.000  C
  C85      1.0000 0.30250  0.13570  0.42610  Biso   1.000  C
  C86      1.0000 0.13570  0.30250  0.13570  Biso   1.000  C
  C87      1.0000 0.42610  0.30250  0.13570  Biso   1.000  C
  C88      1.0000 0.13570  0.13570  0.30250  Biso   1.000  C
  C89      1.0000 0.30250  0.42610  0.13570  Biso   1.000  C
  C90      1.0000 0.13570  0.13570  0.42610  Biso   1.000  C
  C91      1.0000 0.42610  0.13570  0.13570  Biso   1.000  C
  C92      1.0000 0.13570  0.30250  0.42610  Biso   1.000  C
  C93      1.0000 0.30250  0.13570  0.13570  Biso   1.000  C
  C94      1.0000 0.13570  0.42610  0.30250  Biso   1.000  C
  C95      1.0000 0.86430  0.57390  0.69750  Biso   1.000  C
  C96      1.0000 0.57390  0.86430  0.86430  Biso   1.000  C
  C97      1.0000 0.86430  0.69750  0.57390  Biso   1.000  C
  C98      1.0000 0.69750  0.86430  0.86430  Biso   1.000  C
  C99      1.0000 0.69750  0.57390  0.86430  Biso   1.000  C
  C100     1.0000 0.86430  0.86430  0.69750  Biso   1.000  C
  C101     1.0000 0.57390  0.69750  0.86430  Biso   1.000  C
  C102     1.0000 0.86430  0.86430  0.57390  Biso   1.000  C
  C103     1.0000 0.86430  0.57390  0.86430  Biso   1.000  C
  C104     1.0000 0.69750  0.86430  0.57390  Biso   1.000  C
  C105     1.0000 0.86430  0.69750  0.86430  Biso   1.000  C
  C106     1.0000 0.57390  0.86430  0.69750  Biso   1.000  C
  O1       1.0000 0.82908  0.00000  1.00000  Biso   1.000  O
  O2       1.0000 0.41672  0.60350  0.60754  Biso   1.000  O
  O3       1.0000 0.82860  0.17850  0.00070  Biso   1.000  O
  O4       1.0000 0.82874  0.00025  0.17925  Biso   1.000  O
  O5       1.0000 0.00463  0.00070  0.00070  Biso   1.000  O
  O6       1.0000 0.24117  0.60281  0.60684  Biso   1.000  O
  O7       1.0000 0.41706  0.60325  0.42829  Biso   1.000  O
  O8       1.0000 0.41720  0.42500  0.60684  Biso   1.000  O
  O9       1.0000 0.66054  0.14051  0.37126  Biso   1.000  O
  O10      1.0000 0.19300  0.83137  0.14202  Biso   1.000  O
  O11      1.0000 0.96672  0.37014  0.83102  Biso   1.000  O
  O12      1.0000 0.27863  0.77270  0.23628  Biso   1.000  O
  O13      1.0000 0.58545  0.23414  0.46552  Biso   1.000  O
  O14      1.0000 0.05306  0.46165  0.77652  Biso   1.000  O
  O15      1.0000 0.58526  0.46300  0.23628  Biso   1.000  O
  O16      1.0000 0.05280  0.77213  0.46552  Biso   1.000  O
  O17      1.0000 0.27908  0.23336  0.77652  Biso   1.000  O
  O18      1.0000 0.96717  0.83080  0.37126  Biso   1.000  O
  O19      1.0000 0.66036  0.36937  0.14202  Biso   1.000  O
  O20      1.0000 0.19274  0.14185  0.83102  Biso   1.000  O
  O21      1.0000 0.66841  0.36323  0.83743  Biso   1.000  O
  O22      1.0000 0.66270  0.14288  0.83009  Biso   1.000  O
  O23      1.0000 0.66884  0.83720  0.36434  Biso   1.000  O
  O24      1.0000 0.66296  0.83044  0.14305  Biso   1.000  O
  O25      1.0000 0.18790  0.83851  0.83743  Biso   1.000  O
  O26      1.0000 0.97126  0.83122  0.83009  Biso   1.000  O
  O27      1.0000 0.05790  0.76499  0.77011  Biso   1.000  O
  O28      1.0000 0.27454  0.77228  0.77745  Biso   1.000  O
  O29      1.0000 0.57696  0.76630  0.24321  Biso   1.000  O
  O30      1.0000 0.58284  0.77306  0.46449  Biso   1.000  O
  O31      1.0000 0.57739  0.24028  0.77011  Biso   1.000  O
  O32      1.0000 0.58310  0.46062  0.77745  Biso   1.000  O
  O33      1.0000 0.64520  0.20398  0.34377  Biso   1.000  O
  O34      1.0000 0.16581  0.81588  0.20569  Biso   1.000  O
  O35      1.0000 0.02935  0.34280  0.81562  Biso   1.000  O
  O36      1.0000 0.21602  0.78797  0.26377  Biso   1.000  O
  O37      1.0000 0.60071  0.26168  0.40186  Biso   1.000  O
  O38      1.0000 0.08031  0.39821  0.79192  Biso   1.000  O
  O39      1.0000 0.60060  0.39953  0.26377  Biso   1.000  O
  O40      1.0000 0.07999  0.78763  0.40186  Biso   1.000  O
  O41      1.0000 0.21645  0.26070  0.79192  Biso   1.000  O
  O42      1.0000 0.02978  0.81553  0.34377  Biso   1.000  O
  O43      1.0000 0.64509  0.34183  0.20569  Biso   1.000  O
  O44      1.0000 0.16549  0.20529  0.81562  Biso   1.000  O
  O45      1.0000 0.73244  0.18964  0.90203  Biso   1.000  O
  O46      1.0000 0.67431  0.24526  0.84270  Biso   1.000  O
  O47      1.0000 0.64904  0.33930  0.81738  Biso   1.000  O
  O48      1.0000 0.64568  0.20622  0.81304  Biso   1.000  O
  O49      1.0000 0.73268  0.90196  0.19018  Biso   1.000  O
  O50      1.0000 0.67464  0.84274  0.24589  Biso   1.000  O
  O51      1.0000 0.64947  0.81729  0.34026  Biso   1.000  O
  O52      1.0000 0.64600  0.81330  0.20662  Biso   1.000  O
  O53      1.0000 0.01654  0.90268  0.90203  Biso   1.000  O
  O54      1.0000 0.07183  0.84375  0.84270  Biso   1.000  O
  O55      1.0000 0.16456  0.81860  0.81738  Biso   1.000  O
  O56      1.0000 0.03372  0.81428  0.81304  Biso   1.000  O
  O57      1.0000 0.22926  0.70082  0.70551  Biso   1.000  O
  O58      1.0000 0.17397  0.75975  0.76484  Biso   1.000  O
  O59      1.0000 0.08124  0.78491  0.79016  Biso   1.000  O
  O60      1.0000 0.21208  0.78922  0.79450  Biso   1.000  O
  O61      1.0000 0.51312  0.70154  0.41736  Biso   1.000  O
  O62      1.0000 0.57116  0.76076  0.36165  Biso   1.000  O
  O63      1.0000 0.59633  0.78621  0.26729  Biso   1.000  O
  O64      1.0000 0.59980  0.79020  0.40093  Biso   1.000  O
  O65      1.0000 0.51336  0.41387  0.70551  Biso   1.000  O
  O66      1.0000 0.57149  0.35824  0.76484  Biso   1.000  O
  O67      1.0000 0.59676  0.26421  0.79016  Biso   1.000  O
  O68      1.0000 0.60012  0.39728  0.79450  Biso   1.000  O
  O69      1.0000 0.73122  0.18820  0.18946  Biso   1.000  O
  O70      1.0000 0.67811  0.24267  0.24429  Biso   1.000  O
  O71      1.0000 0.01420  0.90238  0.18946  Biso   1.000  O
  O72      1.0000 0.06794  0.84892  0.24429  Biso   1.000  O
  O73      1.0000 0.01396  0.18892  0.90244  Biso   1.000  O
  O74      1.0000 0.06761  0.24365  0.84890  Biso   1.000  O
  O75      1.0000 0.23160  0.70113  0.41808  Biso   1.000  O
  O76      1.0000 0.17786  0.75458  0.36325  Biso   1.000  O
  O77      1.0000 0.51458  0.41530  0.41808  Biso   1.000  O
  O78      1.0000 0.56769  0.36084  0.36325  Biso   1.000  O
  O79      1.0000 0.23184  0.41459  0.70510  Biso   1.000  O
  O80      1.0000 0.17819  0.35985  0.75864  Biso   1.000  O
  O81      1.0000 0.75536  0.22774  0.09829  Biso   1.000  O
  O82      1.0000 0.92452  0.92656  0.22893  Biso   1.000  O
  O83      1.0000 0.05308  0.09806  0.92682  Biso   1.000  O
  O84      1.0000 0.19258  0.67662  0.50925  Biso   1.000  O
  O85      1.0000 0.49033  0.50619  0.37861  Biso   1.000  O
  O86      1.0000 0.32153  0.37534  0.68072  Biso   1.000  O
  O87      1.0000 0.49044  0.37577  0.50925  Biso   1.000  O
  O88      1.0000 0.32128  0.67695  0.37861  Biso   1.000  O
  O89      1.0000 0.19272  0.50544  0.68072  Biso   1.000  O
  O90      1.0000 0.05322  0.92688  0.09829  Biso   1.000  O
  O91      1.0000 0.75547  0.09731  0.22893  Biso   1.000  O
  O92      1.0000 0.92427  0.22816  0.92682  Biso   1.000  O
  O93      1.0000 0.87450  0.04665  0.04696  Biso   1.000  O
  O94      1.0000 0.37130  0.55685  0.56058  Biso   1.000  O
  O95      1.0000 0.75598  0.09911  0.92559  Biso   1.000  O
  O96      1.0000 0.75483  0.22879  0.92528  Biso   1.000  O
  O97      1.0000 0.75612  0.92566  0.09933  Biso   1.000  O
  O98      1.0000 0.75508  0.92502  0.22956  Biso   1.000  O
  O99      1.0000 0.92728  0.92609  0.92559  Biso   1.000  O
  O100     1.0000 0.05483  0.92578  0.92528  Biso   1.000  O
  O101     1.0000 0.31852  0.67741  0.68195  Biso   1.000  O
  O102     1.0000 0.19097  0.67772  0.68226  Biso   1.000  O
  O103     1.0000 0.48968  0.67785  0.50821  Biso   1.000  O
  O104     1.0000 0.49072  0.67848  0.37798  Biso   1.000  O
  O105     1.0000 0.48982  0.50440  0.68195  Biso   1.000  O
  O106     1.0000 0.49097  0.37471  0.68226  Biso   1.000  O
