data_image0
_cell_length_a       18.3054
_cell_length_b       18.3054
_cell_length_c       18.3054
_cell_angle_alpha    60
_cell_angle_beta     60
_cell_angle_gamma    60

_symmetry_space_group_name_H-M    "P 1"
_symmetry_int_tables_number       1

loop_
  _symmetry_equiv_pos_as_xyz
  'x, y, z'

loop_
  _atom_site_label
  _atom_site_occupancy
  _atom_site_fract_x
  _atom_site_fract_y
  _atom_site_fract_z
  _atom_site_thermal_displace_type
  _atom_site_B_iso_or_equiv
  _atom_site_type_symbol
  C1       1.0000 0.20620  0.38140  0.20620  Biso   1.000  C
  C2       1.0000 0.38140  0.20620  0.20620  Biso   1.000  C
  C3       1.0000 0.20620  0.20620  0.20620  Biso   1.000  C
  C4       1.0000 0.20620  0.20620  0.38140  Biso   1.000  C
  C5       1.0000 0.61860  0.79380  0.79380  Biso   1.000  C
  C6       1.0000 0.79380  0.61860  0.79380  Biso   1.000  C
  C7       1.0000 0.79380  0.79380  0.79380  Biso   1.000  C
  C8       1.0000 0.79380  0.79380  0.61860  Biso   1.000  C
  C9       1.0000 0.04910  0.56290  0.04910  Biso   1.000  C
  C10      1.0000 0.56290  0.04910  0.33890  Biso   1.000  C
  C11      1.0000 0.04910  0.33890  0.04910  Biso   1.000  C
  C12      1.0000 0.33890  0.04910  0.56290  Biso   1.000  C
  C13      1.0000 0.04910  0.04910  0.33890  Biso   1.000  C
  C14      1.0000 0.56290  0.33890  0.04910  Biso   1.000  C
  C15      1.0000 0.04910  0.04910  0.56290  Biso   1.000  C
  C16      1.0000 0.33890  0.56290  0.04910  Biso   1.000  C
  C17      1.0000 0.04910  0.33890  0.56290  Biso   1.000  C
  C18      1.0000 0.56290  0.04910  0.04910  Biso   1.000  C
  C19      1.0000 0.04910  0.56290  0.33890  Biso   1.000  C
  C20      1.0000 0.33890  0.04910  0.04910  Biso   1.000  C
  C21      1.0000 0.43710  0.95090  0.95090  Biso   1.000  C
  C22      1.0000 0.95090  0.43710  0.66110  Biso   1.000  C
  C23      1.0000 0.66110  0.95090  0.95090  Biso   1.000  C
  C24      1.0000 0.95090  0.66110  0.43710  Biso   1.000  C
  C25      1.0000 0.95090  0.95090  0.66110  Biso   1.000  C
  C26      1.0000 0.66110  0.43710  0.95090  Biso   1.000  C
  C27      1.0000 0.95090  0.95090  0.43710  Biso   1.000  C
  C28      1.0000 0.43710  0.66110  0.95090  Biso   1.000  C
  C29      1.0000 0.66110  0.95090  0.43710  Biso   1.000  C
  C30      1.0000 0.95090  0.43710  0.95090  Biso   1.000  C
  C31      1.0000 0.43710  0.95090  0.66110  Biso   1.000  C
  C32      1.0000 0.95090  0.66110  0.95090  Biso   1.000  C
  C33      1.0000 0.02610  0.53970  0.02610  Biso   1.000  C
  C34      1.0000 0.53970  0.02610  0.40810  Biso   1.000  C
  C35      1.0000 0.02610  0.40810  0.02610  Biso   1.000  C
  C36      1.0000 0.40810  0.02610  0.53970  Biso   1.000  C
  C37      1.0000 0.02610  0.02610  0.40810  Biso   1.000  C
  C38      1.0000 0.53970  0.40810  0.02610  Biso   1.000  C
  C39      1.0000 0.02610  0.02610  0.53970  Biso   1.000  C
  C40      1.0000 0.40810  0.53970  0.02610  Biso   1.000  C
  C41      1.0000 0.02610  0.40810  0.53970  Biso   1.000  C
  C42      1.0000 0.53970  0.02610  0.02610  Biso   1.000  C
  C43      1.0000 0.02610  0.53970  0.40810  Biso   1.000  C
  C44      1.0000 0.40810  0.02610  0.02610  Biso   1.000  C
  C45      1.0000 0.46030  0.97390  0.97390  Biso   1.000  C
  C46      1.0000 0.97390  0.46030  0.59190  Biso   1.000  C
  C47      1.0000 0.59190  0.97390  0.97390  Biso   1.000  C
  C48      1.0000 0.97390  0.59190  0.46030  Biso   1.000  C
  C49      1.0000 0.97390  0.97390  0.59190  Biso   1.000  C
  C50      1.0000 0.59190  0.46030  0.97390  Biso   1.000  C
  C51      1.0000 0.97390  0.97390  0.46030  Biso   1.000  C
  C52      1.0000 0.46030  0.59190  0.97390  Biso   1.000  C
  C53      1.0000 0.59190  0.97390  0.46030  Biso   1.000  C
  C54      1.0000 0.97390  0.46030  0.97390  Biso   1.000  C
  C55      1.0000 0.46030  0.97390  0.59190  Biso   1.000  C
  C56      1.0000 0.97390  0.59190  0.97390  Biso   1.000  C
  C57      1.0000 0.10850  0.39150  0.10850  Biso   1.000  C
  C58      1.0000 0.05500  0.44500  0.05500  Biso   1.000  C
  C59      1.0000 0.39150  0.10850  0.39150  Biso   1.000  C
  C60      1.0000 0.44500  0.05500  0.44500  Biso   1.000  C
  C61      1.0000 0.10850  0.10850  0.39150  Biso   1.000  C
  C62      1.0000 0.05500  0.05500  0.44500  Biso   1.000  C
  C63      1.0000 0.39150  0.39150  0.10850  Biso   1.000  C
  C64      1.0000 0.44500  0.44500  0.05500  Biso   1.000  C
  C65      1.0000 0.10850  0.39150  0.39150  Biso   1.000  C
  C66      1.0000 0.05500  0.44500  0.44500  Biso   1.000  C
  C67      1.0000 0.39150  0.10850  0.10850  Biso   1.000  C
  C68      1.0000 0.44500  0.05500  0.05500  Biso   1.000  C
  C69      1.0000 0.60850  0.89150  0.89150  Biso   1.000  C
  C70      1.0000 0.55500  0.94500  0.94500  Biso   1.000  C
  C71      1.0000 0.89150  0.60850  0.60850  Biso   1.000  C
  C72      1.0000 0.94500  0.55500  0.55500  Biso   1.000  C
  C73      1.0000 0.89150  0.89150  0.60850  Biso   1.000  C
  C74      1.0000 0.94500  0.94500  0.55500  Biso   1.000  C
  C75      1.0000 0.60850  0.60850  0.89150  Biso   1.000  C
  C76      1.0000 0.55500  0.55500  0.94500  Biso   1.000  C
  C77      1.0000 0.60850  0.89150  0.60850  Biso   1.000  C
  C78      1.0000 0.55500  0.94500  0.55500  Biso   1.000  C
  C79      1.0000 0.89150  0.60850  0.89150  Biso   1.000  C
  C80      1.0000 0.94500  0.55500  0.94500  Biso   1.000  C
  C81      1.0000 0.25000  0.25000  0.25000  Biso   1.000  C
  C82      1.0000 0.75000  0.75000  0.75000  Biso   1.000  C
  C83      1.0000 0.13390  0.42730  0.13390  Biso   1.000  C
  C84      1.0000 0.42730  0.13390  0.30490  Biso   1.000  C
  C85      1.0000 0.13390  0.30490  0.13390  Biso   1.000  C
  C86      1.0000 0.30490  0.13390  0.42730  Biso   1.000  C
  C87      1.0000 0.13390  0.13390  0.30490  Biso   1.000  C
  C88      1.0000 0.42730  0.30490  0.13390  Biso   1.000  C
  C89      1.0000 0.13390  0.13390  0.42730  Biso   1.000  C
  C90      1.0000 0.30490  0.42730  0.13390  Biso   1.000  C
  C91      1.0000 0.13390  0.30490  0.42730  Biso   1.000  C
  C92      1.0000 0.42730  0.13390  0.13390  Biso   1.000  C
  C93      1.0000 0.13390  0.42730  0.30490  Biso   1.000  C
  C94      1.0000 0.30490  0.13390  0.13390  Biso   1.000  C
  C95      1.0000 0.57270  0.86610  0.86610  Biso   1.000  C
  C96      1.0000 0.86610  0.57270  0.69510  Biso   1.000  C
  C97      1.0000 0.69510  0.86610  0.86610  Biso   1.000  C
  C98      1.0000 0.86610  0.69510  0.57270  Biso   1.000  C
  C99      1.0000 0.86610  0.86610  0.69510  Biso   1.000  C
  C100     1.0000 0.69510  0.57270  0.86610  Biso   1.000  C
  C101     1.0000 0.86610  0.86610  0.57270  Biso   1.000  C
  C102     1.0000 0.57270  0.69510  0.86610  Biso   1.000  C
  C103     1.0000 0.69510  0.86610  0.57270  Biso   1.000  C
  C104     1.0000 0.86610  0.57270  0.86610  Biso   1.000  C
  C105     1.0000 0.57270  0.86610  0.69510  Biso   1.000  C
  C106     1.0000 0.86610  0.69510  0.86610  Biso   1.000  C
  O1       1.0000 0.84298  0.01827  0.13233  Biso   1.000  O
  O2       1.0000 0.41737  0.59267  0.53561  Biso   1.000  O
  O3       1.0000 0.58867  0.42137  0.53561  Biso   1.000  O
  O4       1.0000 0.01428  0.84697  0.13233  Biso   1.000  O
  O5       1.0000 0.01435  0.01835  0.96081  Biso   1.000  O
  O6       1.0000 0.01410  0.01809  0.13245  Biso   1.000  O
  O7       1.0000 0.41730  0.42129  0.70712  Biso   1.000  O
  O8       1.0000 0.41755  0.42155  0.53548  Biso   1.000  O
  O9       1.0000 0.87829  0.17286  0.75798  Biso   1.000  O
  O10      1.0000 0.63901  0.17134  0.99777  Biso   1.000  O
  O11      1.0000 0.63704  0.88367  0.28458  Biso   1.000  O
  O12      1.0000 0.26278  0.55736  0.90995  Biso   1.000  O
  O13      1.0000 0.26430  0.79663  0.67017  Biso   1.000  O
  O14      1.0000 0.55197  0.79861  0.38335  Biso   1.000  O
  O15      1.0000 0.55336  0.26677  0.90995  Biso   1.000  O
  O16      1.0000 0.79264  0.26830  0.67017  Biso   1.000  O
  O17      1.0000 0.79461  0.55596  0.38335  Biso   1.000  O
  O18      1.0000 0.16887  0.88228  0.75798  Biso   1.000  O
  O19      1.0000 0.16735  0.64300  0.99777  Biso   1.000  O
  O20      1.0000 0.87968  0.64103  0.28458  Biso   1.000  O
  O21      1.0000 0.84587  0.10525  0.95640  Biso   1.000  O
  O22      1.0000 0.77753  0.16890  0.89792  Biso   1.000  O
  O23      1.0000 0.81571  0.19398  0.78400  Biso   1.000  O
  O24      1.0000 0.66570  0.19256  0.93538  Biso   1.000  O
  O25      1.0000 0.84234  0.10465  0.21858  Biso   1.000  O
  O26      1.0000 0.66275  0.82139  0.30796  Biso   1.000  O
  O27      1.0000 0.33039  0.58978  0.71153  Biso   1.000  O
  O28      1.0000 0.26674  0.65812  0.77001  Biso   1.000  O
  O29      1.0000 0.24166  0.61994  0.88394  Biso   1.000  O
  O30      1.0000 0.24308  0.76994  0.73256  Biso   1.000  O
  O31      1.0000 0.33100  0.59331  0.44936  Biso   1.000  O
  O32      1.0000 0.61425  0.77289  0.35998  Biso   1.000  O
  O33      1.0000 0.58578  0.33439  0.71153  Biso   1.000  O
  O34      1.0000 0.65412  0.27074  0.77001  Biso   1.000  O
  O35      1.0000 0.61594  0.24566  0.88394  Biso   1.000  O
  O36      1.0000 0.76595  0.24708  0.73256  Biso   1.000  O
  O37      1.0000 0.58931  0.33499  0.44936  Biso   1.000  O
  O38      1.0000 0.76890  0.61825  0.35998  Biso   1.000  O
  O39      1.0000 0.10126  0.84986  0.95640  Biso   1.000  O
  O40      1.0000 0.16491  0.78152  0.89792  Biso   1.000  O
  O41      1.0000 0.18999  0.81970  0.78400  Biso   1.000  O
  O42      1.0000 0.18857  0.66970  0.93538  Biso   1.000  O
  O43      1.0000 0.10065  0.84633  0.21858  Biso   1.000  O
  O44      1.0000 0.81740  0.66675  0.30796  Biso   1.000  O
  O45      1.0000 0.10155  0.10554  0.95650  Biso   1.000  O
  O46      1.0000 0.84126  0.84525  0.21770  Biso   1.000  O
  O47      1.0000 0.77731  0.78130  0.28556  Biso   1.000  O
  O48      1.0000 0.33010  0.33410  0.71144  Biso   1.000  O
  O49      1.0000 0.59039  0.59439  0.45024  Biso   1.000  O
  O50      1.0000 0.65434  0.65833  0.38237  Biso   1.000  O
  O51      1.0000 0.92233  0.08922  0.91318  Biso   1.000  O
  O52      1.0000 0.79483  0.08999  0.03796  Biso   1.000  O
  O53      1.0000 0.92212  0.08940  0.20254  Biso   1.000  O
  O54      1.0000 0.79345  0.08959  0.20264  Biso   1.000  O
  O55      1.0000 0.79374  0.92562  0.20420  Biso   1.000  O
  O56      1.0000 0.34643  0.51331  0.75476  Biso   1.000  O
  O57      1.0000 0.34565  0.64082  0.62998  Biso   1.000  O
  O58      1.0000 0.34625  0.51353  0.46540  Biso   1.000  O
  O59      1.0000 0.34605  0.64220  0.46530  Biso   1.000  O
  O60      1.0000 0.51002  0.64190  0.46374  Biso   1.000  O
  O61      1.0000 0.50932  0.35042  0.75476  Biso   1.000  O
  O62      1.0000 0.63682  0.34965  0.62998  Biso   1.000  O
  O63      1.0000 0.50953  0.35024  0.46540  Biso   1.000  O
  O64      1.0000 0.63820  0.35005  0.46530  Biso   1.000  O
  O65      1.0000 0.63791  0.51401  0.46374  Biso   1.000  O
  O66      1.0000 0.08522  0.92632  0.91318  Biso   1.000  O
  O67      1.0000 0.08600  0.79882  0.03796  Biso   1.000  O
  O68      1.0000 0.08540  0.92611  0.20254  Biso   1.000  O
  O69      1.0000 0.08560  0.79744  0.20264  Biso   1.000  O
  O70      1.0000 0.92163  0.79773  0.20420  Biso   1.000  O
  O71      1.0000 0.97013  0.97413  0.09067  Biso   1.000  O
  O72      1.0000 0.08512  0.08912  0.91171  Biso   1.000  O
  O73      1.0000 0.08502  0.08901  0.03972  Biso   1.000  O
  O74      1.0000 0.46152  0.46551  0.57727  Biso   1.000  O
  O75      1.0000 0.34652  0.35052  0.75622  Biso   1.000  O
  O76      1.0000 0.34663  0.35063  0.62822  Biso   1.000  O
