data_image0
_cell_length_a       12.662
_cell_length_b       14.662
_cell_length_c       15.434
_cell_angle_alpha    90
_cell_angle_beta     90
_cell_angle_gamma    90

_symmetry_space_group_name_H-M    "P 1"
_symmetry_int_tables_number       1

loop_
  _symmetry_equiv_pos_as_xyz
  'x, y, z'

loop_
  _atom_site_label
  _atom_site_occupancy
  _atom_site_fract_x
  _atom_site_fract_y
  _atom_site_fract_z
  _atom_site_thermal_displace_type
  _atom_site_B_iso_or_equiv
  _atom_site_type_symbol
  Zn1      1.0000 0.48863  0.97589  0.04708  Biso   1.000  Zn
  Zn2      1.0000 0.29826  0.83100  0.15983  Biso   1.000  Zn
  Zn3      1.0000 0.01137  0.02411  0.54708  Biso   1.000  Zn
  Zn4      1.0000 0.20174  0.16900  0.65983  Biso   1.000  Zn
  Zn5      1.0000 0.51137  0.47589  0.45292  Biso   1.000  Zn
  Zn6      1.0000 0.70174  0.33100  0.34017  Biso   1.000  Zn
  Zn7      1.0000 0.98863  0.52411  0.95292  Biso   1.000  Zn
  Zn8      1.0000 0.79826  0.66900  0.84017  Biso   1.000  Zn
  H1       1.0000 0.54030  0.68860  0.26290  Biso   1.000  H
  H2       1.0000 0.77010  0.51910  0.17640  Biso   1.000  H
  H3       1.0000 0.69280  0.74580  0.03820  Biso   1.000  H
  H4       1.0000 0.95970  0.31140  0.76290  Biso   1.000  H
  H5       1.0000 0.72990  0.48090  0.67640  Biso   1.000  H
  H6       1.0000 0.80720  0.25420  0.53820  Biso   1.000  H
  H7       1.0000 0.45970  0.18860  0.23710  Biso   1.000  H
  H8       1.0000 0.22990  0.01910  0.32360  Biso   1.000  H
  H9       1.0000 0.30720  0.24580  0.46180  Biso   1.000  H
  H10      1.0000 0.04030  0.81140  0.73710  Biso   1.000  H
  H11      1.0000 0.27010  0.98090  0.82360  Biso   1.000  H
  H12      1.0000 0.19280  0.75420  0.96180  Biso   1.000  H
  C1       1.0000 0.60690  0.72970  0.14960  Biso   1.000  C
  C2       1.0000 0.59210  0.67330  0.22080  Biso   1.000  C
  C3       1.0000 0.65190  0.59480  0.23150  Biso   1.000  C
  C4       1.0000 0.72820  0.57240  0.16930  Biso   1.000  C
  C5       1.0000 0.74300  0.62800  0.09690  Biso   1.000  C
  C6       1.0000 0.68250  0.70740  0.08700  Biso   1.000  C
  C7       1.0000 0.54030  0.81360  0.13910  Biso   1.000  C
  C8       1.0000 0.63510  0.53250  0.30720  Biso   1.000  C
  C9       1.0000 0.82390  0.60480  0.03070  Biso   1.000  C
  C10      1.0000 0.89310  0.27030  0.64960  Biso   1.000  C
  C11      1.0000 0.90790  0.32670  0.72080  Biso   1.000  C
  C12      1.0000 0.84810  0.40520  0.73150  Biso   1.000  C
  C13      1.0000 0.77180  0.42760  0.66930  Biso   1.000  C
  C14      1.0000 0.75700  0.37200  0.59690  Biso   1.000  C
  C15      1.0000 0.81750  0.29260  0.58700  Biso   1.000  C
  C16      1.0000 0.95970  0.18640  0.63910  Biso   1.000  C
  C17      1.0000 0.86490  0.46750  0.80720  Biso   1.000  C
  C18      1.0000 0.67610  0.39520  0.53070  Biso   1.000  C
  C19      1.0000 0.39310  0.22970  0.35040  Biso   1.000  C
  C20      1.0000 0.40790  0.17330  0.27920  Biso   1.000  C
  C21      1.0000 0.34810  0.09480  0.26850  Biso   1.000  C
  C22      1.0000 0.27180  0.07240  0.33070  Biso   1.000  C
  C23      1.0000 0.25700  0.12800  0.40310  Biso   1.000  C
  C24      1.0000 0.31750  0.20740  0.41300  Biso   1.000  C
  C25      1.0000 0.45970  0.31360  0.36090  Biso   1.000  C
  C26      1.0000 0.36490  0.03250  0.19280  Biso   1.000  C
  C27      1.0000 0.17610  0.10480  0.46930  Biso   1.000  C
  C28      1.0000 0.10690  0.77030  0.85040  Biso   1.000  C
  C29      1.0000 0.09210  0.82670  0.77920  Biso   1.000  C
  C30      1.0000 0.15190  0.90520  0.76850  Biso   1.000  C
  C31      1.0000 0.22820  0.92760  0.83070  Biso   1.000  C
  C32      1.0000 0.24300  0.87200  0.90310  Biso   1.000  C
  C33      1.0000 0.18250  0.79260  0.91300  Biso   1.000  C
  C34      1.0000 0.04030  0.68640  0.86090  Biso   1.000  C
  C35      1.0000 0.13510  0.96750  0.69280  Biso   1.000  C
  C36      1.0000 0.32390  0.89520  0.96930  Biso   1.000  C
  O1       1.0000 0.57084  0.87030  0.08211  Biso   1.000  O
  O2       1.0000 0.46136  0.82292  0.18711  Biso   1.000  O
  O3       1.0000 0.55447  0.55002  0.35370  Biso   1.000  O
  O4       1.0000 0.69942  0.47075  0.31993  Biso   1.000  O
  O5       1.0000 0.87521  0.53090  0.04004  Biso   1.000  O
  O6       1.0000 0.84081  0.66027  0.97045  Biso   1.000  O
  O7       1.0000 0.92916  0.12970  0.58211  Biso   1.000  O
  O8       1.0000 0.03864  0.17708  0.68711  Biso   1.000  O
  O9       1.0000 0.94553  0.44998  0.85370  Biso   1.000  O
  O10      1.0000 0.80058  0.52925  0.81993  Biso   1.000  O
  O11      1.0000 0.62479  0.46910  0.54004  Biso   1.000  O
  O12      1.0000 0.65919  0.33973  0.47045  Biso   1.000  O
  O13      1.0000 0.42916  0.37030  0.41789  Biso   1.000  O
  O14      1.0000 0.53864  0.32292  0.31289  Biso   1.000  O
  O15      1.0000 0.44553  0.05002  0.14630  Biso   1.000  O
  O16      1.0000 0.30058  0.97075  0.18007  Biso   1.000  O
  O17      1.0000 0.12479  0.03090  0.45996  Biso   1.000  O
  O18      1.0000 0.15919  0.16027  0.52955  Biso   1.000  O
  O19      1.0000 0.07084  0.62970  0.91789  Biso   1.000  O
  O20      1.0000 0.96136  0.67708  0.81289  Biso   1.000  O
  O21      1.0000 0.05447  0.94998  0.64630  Biso   1.000  O
  O22      1.0000 0.19942  0.02925  0.68007  Biso   1.000  O
  O23      1.0000 0.37521  0.96910  0.95996  Biso   1.000  O
  O24      1.0000 0.34081  0.83973  0.02955  Biso   1.000  O
  Zn9      1.0000 0.53704  0.61685  0.05920  Biso   1.000  Zn
  Zn10     1.0000 0.01326  0.77552  0.39676  Biso   1.000  Zn
  Zn11     1.0000 0.11412  0.12178  0.89179  Biso   1.000  Zn
  Zn12     1.0000 0.34431  0.47152  0.17648  Biso   1.000  Zn
  Zn13     1.0000 0.30685  0.97645  0.77451  Biso   1.000  Zn
  Zn14     1.0000 0.82054  0.92085  0.27948  Biso   1.000  Zn
  Zn15     1.0000 0.63789  0.28045  0.56417  Biso   1.000  Zn
  Zn16     1.0000 0.83062  0.42578  0.68145  Biso   1.000  Zn
  H13      1.0000 0.36507  0.27029  0.98688  Biso   1.000  H
  H14      1.0000 0.65514  0.69235  0.27156  Biso   1.000  H
  H15      1.0000 0.51979  0.20495  0.76659  Biso   1.000  H
  H16      1.0000 0.07658  0.96955  0.55581  Biso   1.000  H
  H17      1.0000 0.84130  0.13194  0.46908  Biso   1.000  H
  H18      1.0000 0.13136  0.70002  0.18440  Biso   1.000  H
  H19      1.0000 0.60035  0.43267  0.90015  Biso   1.000  H
  H20      1.0000 0.80986  0.62701  0.49185  Biso   1.000  H
  H21      1.0000 0.57458  0.46462  0.40512  Biso   1.000  H
  H22      1.0000 0.05081  0.92775  0.05084  Biso   1.000  H
  H23      1.0000 0.99602  0.19728  0.68937  Biso   1.000  H
  H24      1.0000 0.28609  0.76536  0.96411  Biso   1.000  H
  C37      1.0000 0.70877  0.47442  0.53541  Biso   1.000  C
  C38      1.0000 0.43264  0.22363  0.87441  Biso   1.000  C
  C39      1.0000 0.14111  0.73900  0.13757  Biso   1.000  C
  C40      1.0000 0.81258  0.75657  0.36988  Biso   1.000  C
  C41      1.0000 0.55855  0.38016  0.89372  Biso   1.000  C
  C42      1.0000 0.90887  0.17859  0.58155  Biso   1.000  C
  C43      1.0000 0.99298  0.83898  0.19598  Biso   1.000  C
  C44      1.0000 0.28881  0.63580  0.08608  Biso   1.000  C
  C45      1.0000 0.41787  0.28281  0.94589  Biso   1.000  C
  C46      1.0000 0.51675  0.55339  0.25998  Biso   1.000  C
  C47      1.0000 0.94239  0.97935  0.42552  Biso   1.000  C
  C48      1.0000 0.18500  0.91795  0.92055  Biso   1.000  C
  C49      1.0000 0.75706  0.61449  0.45086  Biso   1.000  C
  C50      1.0000 0.74229  0.67366  0.37938  Biso   1.000  C
  C51      1.0000 0.23329  0.77788  0.00510  Biso   1.000  C
  C52      1.0000 0.36235  0.14072  0.86491  Biso   1.000  C
  C53      1.0000 0.60003  0.57409  0.32631  Biso   1.000  C
  C54      1.0000 0.05112  0.07902  0.63462  Biso   1.000  C
  C55      1.0000 0.16845  0.85453  0.99678  Biso   1.000  C
  C56      1.0000 0.21852  0.71870  0.07658  Biso   1.000  C
  C57      1.0000 0.03478  0.02207  0.56224  Biso   1.000  C
  C58      1.0000 0.61638  0.51714  0.39869  Biso   1.000  C
  C59      1.0000 0.69222  0.53784  0.45918  Biso   1.000  C
  C60      1.0000 0.07626  0.81828  0.12965  Biso   1.000  C
  C61      1.0000 0.57489  0.32321  0.82134  Biso   1.000  C
  C62      1.0000 0.89410  0.11942  0.51007  Biso   1.000  C
  C63      1.0000 0.66488  0.65337  0.31839  Biso   1.000  C
  C64      1.0000 0.13440  0.05832  0.70095  Biso   1.000  C
  C65      1.0000 0.65817  0.34391  0.75501  Biso   1.000  C
  C66      1.0000 0.98628  0.15830  0.64254  Biso   1.000  C
  C67      1.0000 0.48271  0.35946  0.95421  Biso   1.000  C
  C68      1.0000 0.95894  0.04277  0.50175  Biso   1.000  C
  C69      1.0000 0.09260  0.87523  0.05727  Biso   1.000  C
  C70      1.0000 0.46616  0.42288  0.03044  Biso   1.000  C
  C71      1.0000 0.83858  0.26150  0.59105  Biso   1.000  C
  C72      1.0000 0.51005  0.24393  0.81342  Biso   1.000  C
  O25      1.0000 0.50198  0.60954  0.19103  Biso   1.000  O
  O26      1.0000 0.26105  0.57854  0.14361  Biso   1.000  O
  O27      1.0000 0.18929  0.98551  0.69036  Biso   1.000  O
  O28      1.0000 0.78482  0.81383  0.31235  Biso   1.000  O
  O29      1.0000 0.64435  0.42167  0.54571  Biso   1.000  O
  O30      1.0000 0.67294  0.28776  0.69600  Biso   1.000  O
  O31      1.0000 0.53058  0.47563  0.04074  Biso   1.000  O
  O32      1.0000 0.36968  0.62782  0.03737  Biso   1.000  O
  O33      1.0000 0.00681  0.91674  0.41522  Biso   1.000  O
  O34      1.0000 0.78912  0.49017  0.58304  Biso   1.000  O
  O35      1.0000 0.84591  0.76455  0.41859  Biso   1.000  O
  O36      1.0000 0.46186  0.48058  0.27057  Biso   1.000  O
  O37      1.0000 0.38581  0.40713  0.07806  Biso   1.000  O
  O38      1.0000 0.14917  0.11447  0.75996  Biso   1.000  O
  O39      1.0000 0.71306  0.41672  0.76560  Biso   1.000  O
  O40      1.0000 0.26534  0.90220  0.87292  Biso   1.000  O
  O41      1.0000 0.28148  0.13275  0.91362  Biso   1.000  O
  O42      1.0000 0.97821  0.78283  0.26493  Biso   1.000  O
  O43      1.0000 0.39011  0.08347  0.80738  Biso   1.000  O
  O44      1.0000 0.80525  0.26948  0.54234  Biso   1.000  O
  O45      1.0000 0.86634  0.31876  0.64858  Biso   1.000  O
  O46      1.0000 0.12057  0.98056  0.91025  Biso   1.000  O
  O47      1.0000 0.86204  0.99510  0.37789  Biso   1.000  O
  O48      1.0000 0.93809  0.91179  0.18539  Biso   1.000  O
