data_image0
_cell_length_a       18.3014
_cell_length_b       18.3014
_cell_length_c       18.3014
_cell_angle_alpha    60
_cell_angle_beta     60
_cell_angle_gamma    60

_symmetry_space_group_name_H-M    "P 1"
_symmetry_int_tables_number       1

loop_
  _symmetry_equiv_pos_as_xyz
  'x, y, z'

loop_
  _atom_site_label
  _atom_site_occupancy
  _atom_site_fract_x
  _atom_site_fract_y
  _atom_site_fract_z
  _atom_site_thermal_displace_type
  _atom_site_B_iso_or_equiv
  _atom_site_type_symbol
  C1       1.0000 0.20640  0.38080  0.20640  Biso   1.000  C
  C2       1.0000 0.38080  0.20640  0.20640  Biso   1.000  C
  C3       1.0000 0.20640  0.20640  0.20640  Biso   1.000  C
  C4       1.0000 0.20640  0.20640  0.38080  Biso   1.000  C
  C5       1.0000 0.61920  0.79360  0.79360  Biso   1.000  C
  C6       1.0000 0.79360  0.61920  0.79360  Biso   1.000  C
  C7       1.0000 0.79360  0.79360  0.79360  Biso   1.000  C
  C8       1.0000 0.79360  0.79360  0.61920  Biso   1.000  C
  C9       1.0000 0.04850  0.56570  0.04850  Biso   1.000  C
  C10      1.0000 0.56570  0.04850  0.33730  Biso   1.000  C
  C11      1.0000 0.04850  0.33730  0.04850  Biso   1.000  C
  C12      1.0000 0.33730  0.04850  0.56570  Biso   1.000  C
  C13      1.0000 0.04850  0.04850  0.33730  Biso   1.000  C
  C14      1.0000 0.56570  0.33730  0.04850  Biso   1.000  C
  C15      1.0000 0.04850  0.04850  0.56570  Biso   1.000  C
  C16      1.0000 0.33730  0.56570  0.04850  Biso   1.000  C
  C17      1.0000 0.04850  0.33730  0.56570  Biso   1.000  C
  C18      1.0000 0.56570  0.04850  0.04850  Biso   1.000  C
  C19      1.0000 0.04850  0.56570  0.33730  Biso   1.000  C
  C20      1.0000 0.33730  0.04850  0.04850  Biso   1.000  C
  C21      1.0000 0.43430  0.95150  0.95150  Biso   1.000  C
  C22      1.0000 0.95150  0.43430  0.66270  Biso   1.000  C
  C23      1.0000 0.66270  0.95150  0.95150  Biso   1.000  C
  C24      1.0000 0.95150  0.66270  0.43430  Biso   1.000  C
  C25      1.0000 0.95150  0.95150  0.66270  Biso   1.000  C
  C26      1.0000 0.66270  0.43430  0.95150  Biso   1.000  C
  C27      1.0000 0.95150  0.95150  0.43430  Biso   1.000  C
  C28      1.0000 0.43430  0.66270  0.95150  Biso   1.000  C
  C29      1.0000 0.66270  0.95150  0.43430  Biso   1.000  C
  C30      1.0000 0.95150  0.43430  0.95150  Biso   1.000  C
  C31      1.0000 0.43430  0.95150  0.66270  Biso   1.000  C
  C32      1.0000 0.95150  0.66270  0.95150  Biso   1.000  C
  C33      1.0000 0.02640  0.53920  0.02640  Biso   1.000  C
  C34      1.0000 0.53920  0.02640  0.40800  Biso   1.000  C
  C35      1.0000 0.02640  0.40800  0.02640  Biso   1.000  C
  C36      1.0000 0.40800  0.02640  0.53920  Biso   1.000  C
  C37      1.0000 0.02640  0.02640  0.40800  Biso   1.000  C
  C38      1.0000 0.53920  0.40800  0.02640  Biso   1.000  C
  C39      1.0000 0.02640  0.02640  0.53920  Biso   1.000  C
  C40      1.0000 0.40800  0.53920  0.02640  Biso   1.000  C
  C41      1.0000 0.02640  0.40800  0.53920  Biso   1.000  C
  C42      1.0000 0.53920  0.02640  0.02640  Biso   1.000  C
  C43      1.0000 0.02640  0.53920  0.40800  Biso   1.000  C
  C44      1.0000 0.40800  0.02640  0.02640  Biso   1.000  C
  C45      1.0000 0.46080  0.97360  0.97360  Biso   1.000  C
  C46      1.0000 0.97360  0.46080  0.59200  Biso   1.000  C
  C47      1.0000 0.59200  0.97360  0.97360  Biso   1.000  C
  C48      1.0000 0.97360  0.59200  0.46080  Biso   1.000  C
  C49      1.0000 0.97360  0.97360  0.59200  Biso   1.000  C
  C50      1.0000 0.59200  0.46080  0.97360  Biso   1.000  C
  C51      1.0000 0.97360  0.97360  0.46080  Biso   1.000  C
  C52      1.0000 0.46080  0.59200  0.97360  Biso   1.000  C
  C53      1.0000 0.59200  0.97360  0.46080  Biso   1.000  C
  C54      1.0000 0.97360  0.46080  0.97360  Biso   1.000  C
  C55      1.0000 0.46080  0.97360  0.59200  Biso   1.000  C
  C56      1.0000 0.97360  0.59200  0.97360  Biso   1.000  C
  C57      1.0000 0.11050  0.38950  0.11050  Biso   1.000  C
  C58      1.0000 0.05430  0.44570  0.05430  Biso   1.000  C
  C59      1.0000 0.38950  0.11050  0.38950  Biso   1.000  C
  C60      1.0000 0.44570  0.05430  0.44570  Biso   1.000  C
  C61      1.0000 0.11050  0.11050  0.38950  Biso   1.000  C
  C62      1.0000 0.05430  0.05430  0.44570  Biso   1.000  C
  C63      1.0000 0.38950  0.38950  0.11050  Biso   1.000  C
  C64      1.0000 0.44570  0.44570  0.05430  Biso   1.000  C
  C65      1.0000 0.11050  0.38950  0.38950  Biso   1.000  C
  C66      1.0000 0.05430  0.44570  0.44570  Biso   1.000  C
  C67      1.0000 0.38950  0.11050  0.11050  Biso   1.000  C
  C68      1.0000 0.44570  0.05430  0.05430  Biso   1.000  C
  C69      1.0000 0.61050  0.88950  0.88950  Biso   1.000  C
  C70      1.0000 0.55430  0.94570  0.94570  Biso   1.000  C
  C71      1.0000 0.88950  0.61050  0.61050  Biso   1.000  C
  C72      1.0000 0.94570  0.55430  0.55430  Biso   1.000  C
  C73      1.0000 0.88950  0.88950  0.61050  Biso   1.000  C
  C74      1.0000 0.94570  0.94570  0.55430  Biso   1.000  C
  C75      1.0000 0.61050  0.61050  0.88950  Biso   1.000  C
  C76      1.0000 0.55430  0.55430  0.94570  Biso   1.000  C
  C77      1.0000 0.61050  0.88950  0.61050  Biso   1.000  C
  C78      1.0000 0.55430  0.94570  0.55430  Biso   1.000  C
  C79      1.0000 0.88950  0.61050  0.88950  Biso   1.000  C
  C80      1.0000 0.94570  0.55430  0.94570  Biso   1.000  C
  C81      1.0000 0.25000  0.25000  0.25000  Biso   1.000  C
  C82      1.0000 0.75000  0.75000  0.75000  Biso   1.000  C
  C83      1.0000 0.13330  0.42830  0.13330  Biso   1.000  C
  C84      1.0000 0.42830  0.13330  0.30510  Biso   1.000  C
  C85      1.0000 0.13330  0.30510  0.13330  Biso   1.000  C
  C86      1.0000 0.30510  0.13330  0.42830  Biso   1.000  C
  C87      1.0000 0.13330  0.13330  0.30510  Biso   1.000  C
  C88      1.0000 0.42830  0.30510  0.13330  Biso   1.000  C
  C89      1.0000 0.13330  0.13330  0.42830  Biso   1.000  C
  C90      1.0000 0.30510  0.42830  0.13330  Biso   1.000  C
  C91      1.0000 0.13330  0.30510  0.42830  Biso   1.000  C
  C92      1.0000 0.42830  0.13330  0.13330  Biso   1.000  C
  C93      1.0000 0.13330  0.42830  0.30510  Biso   1.000  C
  C94      1.0000 0.30510  0.13330  0.13330  Biso   1.000  C
  C95      1.0000 0.57170  0.86670  0.86670  Biso   1.000  C
  C96      1.0000 0.86670  0.57170  0.69490  Biso   1.000  C
  C97      1.0000 0.69490  0.86670  0.86670  Biso   1.000  C
  C98      1.0000 0.86670  0.69490  0.57170  Biso   1.000  C
  C99      1.0000 0.86670  0.86670  0.69490  Biso   1.000  C
  C100     1.0000 0.69490  0.57170  0.86670  Biso   1.000  C
  C101     1.0000 0.86670  0.86670  0.57170  Biso   1.000  C
  C102     1.0000 0.57170  0.69490  0.86670  Biso   1.000  C
  C103     1.0000 0.69490  0.86670  0.57170  Biso   1.000  C
  C104     1.0000 0.86670  0.57170  0.86670  Biso   1.000  C
  C105     1.0000 0.57170  0.86670  0.69490  Biso   1.000  C
  C106     1.0000 0.86670  0.69490  0.86670  Biso   1.000  C
  O1       1.0000 0.55540  0.38635  0.28563  Biso   1.000  O
  O2       1.0000 0.10812  0.81170  0.88217  Biso   1.000  O
  O3       1.0000 0.10812  0.98307  0.88217  Biso   1.000  O
  O4       1.0000 0.55540  0.55772  0.28563  Biso   1.000  O
  O5       1.0000 0.55536  0.38627  0.45722  Biso   1.000  O
  O6       1.0000 0.72655  0.38653  0.28550  Biso   1.000  O
  O7       1.0000 0.10816  0.98315  0.71058  Biso   1.000  O
  O8       1.0000 0.93697  0.98290  0.88229  Biso   1.000  O
  O9       1.0000 0.37126  0.23169  0.65969  Biso   1.000  O
  O10      1.0000 0.37032  0.23321  0.42024  Biso   1.000  O
  O11      1.0000 0.36747  0.52100  0.13330  Biso   1.000  O
  O12      1.0000 0.29227  0.84702  0.50810  Biso   1.000  O
  O13      1.0000 0.29320  0.60808  0.74755  Biso   1.000  O
  O14      1.0000 0.29606  0.60611  0.03449  Biso   1.000  O
  O15      1.0000 0.29227  0.13774  0.50810  Biso   1.000  O
  O16      1.0000 0.29320  0.13621  0.74755  Biso   1.000  O
  O17      1.0000 0.29605  0.84842  0.03449  Biso   1.000  O
  O18      1.0000 0.37126  0.52240  0.65969  Biso   1.000  O
  O19      1.0000 0.37032  0.76134  0.42024  Biso   1.000  O
  O20      1.0000 0.36747  0.76331  0.13330  Biso   1.000  O
  O21      1.0000 0.46933  0.29933  0.46163  Biso   1.000  O
  O22      1.0000 0.40615  0.23565  0.52013  Biso   1.000  O
  O23      1.0000 0.35580  0.21056  0.63367  Biso   1.000  O
  O24      1.0000 0.35585  0.21198  0.48266  Biso   1.000  O
  O25      1.0000 0.72746  0.29993  0.19934  Biso   1.000  O
  O26      1.0000 0.35426  0.58331  0.10992  Biso   1.000  O
  O27      1.0000 0.19419  0.81459  0.70616  Biso   1.000  O
  O28      1.0000 0.25737  0.74622  0.64766  Biso   1.000  O
  O29      1.0000 0.30772  0.78442  0.53412  Biso   1.000  O
  O30      1.0000 0.30768  0.63479  0.68513  Biso   1.000  O
  O31      1.0000 0.93606  0.81106  0.96845  Biso   1.000  O
  O32      1.0000 0.30926  0.63183  0.05787  Biso   1.000  O
  O33      1.0000 0.19419  0.07009  0.70616  Biso   1.000  O
  O34      1.0000 0.25737  0.13377  0.64766  Biso   1.000  O
  O35      1.0000 0.30772  0.15886  0.53412  Biso   1.000  O
  O36      1.0000 0.30768  0.15744  0.68513  Biso   1.000  O
  O37      1.0000 0.93606  0.06949  0.96845  Biso   1.000  O
  O38      1.0000 0.30926  0.78611  0.05787  Biso   1.000  O
  O39      1.0000 0.46933  0.55483  0.46163  Biso   1.000  O
  O40      1.0000 0.40615  0.62320  0.52013  Biso   1.000  O
  O41      1.0000 0.35580  0.58500  0.63367  Biso   1.000  O
  O42      1.0000 0.35584  0.73463  0.48266  Biso   1.000  O
  O43      1.0000 0.72746  0.55836  0.19934  Biso   1.000  O
  O44      1.0000 0.35426  0.73759  0.10992  Biso   1.000  O
  O45      1.0000 0.72551  0.29904  0.46153  Biso   1.000  O
  O46      1.0000 0.46599  0.55944  0.20022  Biso   1.000  O
  O47      1.0000 0.40593  0.62342  0.13232  Biso   1.000  O
  O48      1.0000 0.93801  0.07038  0.70626  Biso   1.000  O
  O49      1.0000 0.19753  0.80998  0.96757  Biso   1.000  O
  O50      1.0000 0.25759  0.74600  0.03547  Biso   1.000  O
  O51      1.0000 0.48655  0.31537  0.50487  Biso   1.000  O
  O52      1.0000 0.48459  0.31460  0.38004  Biso   1.000  O
  O53      1.0000 0.77597  0.31519  0.21538  Biso   1.000  O
  O54      1.0000 0.64754  0.31500  0.21529  Biso   1.000  O
  O55      1.0000 0.48536  0.47903  0.21372  Biso   1.000  O
  O56      1.0000 0.17697  0.89109  0.66292  Biso   1.000  O
  O57      1.0000 0.17893  0.76353  0.78776  Biso   1.000  O
  O58      1.0000 0.88755  0.89088  0.95241  Biso   1.000  O
  O59      1.0000 0.01598  0.76215  0.95251  Biso   1.000  O
  O60      1.0000 0.17816  0.76244  0.95407  Biso   1.000  O
  O61      1.0000 0.17697  0.05405  0.66292  Biso   1.000  O
  O62      1.0000 0.17893  0.05483  0.78776  Biso   1.000  O
  O63      1.0000 0.88755  0.05423  0.95241  Biso   1.000  O
  O64      1.0000 0.01598  0.05442  0.95251  Biso   1.000  O
  O65      1.0000 0.17816  0.89039  0.95407  Biso   1.000  O
  O66      1.0000 0.48655  0.47833  0.50487  Biso   1.000  O
  O67      1.0000 0.48459  0.60589  0.38004  Biso   1.000  O
  O68      1.0000 0.77597  0.47855  0.21538  Biso   1.000  O
  O69      1.0000 0.64754  0.60727  0.21529  Biso   1.000  O
  O70      1.0000 0.48536  0.60698  0.21372  Biso   1.000  O
  O71      1.0000 0.59678  0.43051  0.32730  Biso   1.000  O
  O72      1.0000 0.64785  0.31547  0.50634  Biso   1.000  O
  O73      1.0000 0.77569  0.31557  0.37827  Biso   1.000  O
  O74      1.0000 0.06674  0.93891  0.84049  Biso   1.000  O
  O75      1.0000 0.01567  0.05395  0.66145  Biso   1.000  O
  O76      1.0000 0.88783  0.05385  0.78952  Biso   1.000  O
