data_image0
_cell_length_a       18.101
_cell_length_b       18.101
_cell_length_c       18.101
_cell_angle_alpha    60.0036
_cell_angle_beta     60.0036
_cell_angle_gamma    60.0001

_symmetry_space_group_name_H-M    "P 1"
_symmetry_int_tables_number       1

loop_
  _symmetry_equiv_pos_as_xyz
  'x, y, z'

loop_
  _atom_site_label
  _atom_site_occupancy
  _atom_site_fract_x
  _atom_site_fract_y
  _atom_site_fract_z
  _atom_site_thermal_displace_type
  _atom_site_B_iso_or_equiv
  _atom_site_type_symbol
  Zn1      1.0000 0.11865  0.29385  0.29380  Biso   1.000  Zn
  Zn2      1.0000 0.70615  0.88135  0.70620  Biso   1.000  Zn
  Zn3      1.0000 0.88135  0.70615  0.70620  Biso   1.000  Zn
  Zn4      1.0000 0.29385  0.11865  0.29380  Biso   1.000  Zn
  Zn5      1.0000 0.29392  0.29392  0.11841  Biso   1.000  Zn
  Zn6      1.0000 0.29367  0.29367  0.29393  Biso   1.000  Zn
  Zn7      1.0000 0.70608  0.70608  0.88159  Biso   1.000  Zn
  Zn8      1.0000 0.70633  0.70633  0.70607  Biso   1.000  Zn
  H1       1.0000 0.15480  0.45200  0.93360  Biso   1.000  H
  H2       1.0000 0.93280  0.45040  0.15620  Biso   1.000  H
  H3       1.0000 0.93080  0.15620  0.44950  Biso   1.000  H
  H4       1.0000 0.54800  0.84520  0.06640  Biso   1.000  H
  H5       1.0000 0.54960  0.06720  0.84380  Biso   1.000  H
  H6       1.0000 0.84380  0.06920  0.55050  Biso   1.000  H
  H7       1.0000 0.84520  0.54800  0.06640  Biso   1.000  H
  H8       1.0000 0.06720  0.54960  0.84380  Biso   1.000  H
  H9       1.0000 0.06920  0.84380  0.55050  Biso   1.000  H
  H10      1.0000 0.45200  0.15480  0.93360  Biso   1.000  H
  H11      1.0000 0.45040  0.93280  0.15620  Biso   1.000  H
  H12      1.0000 0.15620  0.93080  0.44950  Biso   1.000  H
  C1       1.0000 0.12160  0.38280  0.11390  Biso   1.000  C
  C2       1.0000 0.05170  0.44790  0.05410  Biso   1.000  C
  C3       1.0000 0.09080  0.47360  0.96020  Biso   1.000  C
  C4       1.0000 0.96010  0.47210  0.09240  Biso   1.000  C
  C5       1.0000 0.11800  0.38220  0.38200  Biso   1.000  C
  C6       1.0000 0.95710  0.09250  0.47340  Biso   1.000  C
  C7       1.0000 0.61720  0.87840  0.88610  Biso   1.000  C
  C8       1.0000 0.55210  0.94830  0.94590  Biso   1.000  C
  C9       1.0000 0.52640  0.90920  0.03980  Biso   1.000  C
  C10      1.0000 0.52790  0.03990  0.90760  Biso   1.000  C
  C11      1.0000 0.61780  0.88200  0.61800  Biso   1.000  C
  C12      1.0000 0.90750  0.04290  0.52660  Biso   1.000  C
  C13      1.0000 0.87840  0.61720  0.88610  Biso   1.000  C
  C14      1.0000 0.94830  0.55210  0.94590  Biso   1.000  C
  C15      1.0000 0.90920  0.52640  0.03980  Biso   1.000  C
  C16      1.0000 0.03990  0.52790  0.90760  Biso   1.000  C
  C17      1.0000 0.88200  0.61780  0.61800  Biso   1.000  C
  C18      1.0000 0.04290  0.90750  0.52660  Biso   1.000  C
  C19      1.0000 0.38280  0.12160  0.11390  Biso   1.000  C
  C20      1.0000 0.44790  0.05170  0.05410  Biso   1.000  C
  C21      1.0000 0.47360  0.09080  0.96020  Biso   1.000  C
  C22      1.0000 0.47210  0.96010  0.09240  Biso   1.000  C
  C23      1.0000 0.38220  0.11800  0.38200  Biso   1.000  C
  C24      1.0000 0.09250  0.95710  0.47340  Biso   1.000  C
  C25      1.0000 0.38310  0.38310  0.11400  Biso   1.000  C
  C26      1.0000 0.11690  0.11690  0.38110  Biso   1.000  C
  C27      1.0000 0.05150  0.05150  0.45050  Biso   1.000  C
  C28      1.0000 0.61690  0.61690  0.88600  Biso   1.000  C
  C29      1.0000 0.88310  0.88310  0.61890  Biso   1.000  C
  C30      1.0000 0.94850  0.94850  0.54950  Biso   1.000  C
  O1       1.0000 0.19980  0.36640  0.06970  Biso   1.000  O
  O2       1.0000 0.06940  0.36720  0.19730  Biso   1.000  O
  O3       1.0000 0.19960  0.36660  0.36560  Biso   1.000  O
  O4       1.0000 0.06800  0.36680  0.36570  Biso   1.000  O
  O5       1.0000 0.06830  0.19910  0.36730  Biso   1.000  O
  O6       1.0000 0.63360  0.80020  0.93030  Biso   1.000  O
  O7       1.0000 0.63280  0.93060  0.80270  Biso   1.000  O
  O8       1.0000 0.63340  0.80040  0.63440  Biso   1.000  O
  O9       1.0000 0.63320  0.93200  0.63430  Biso   1.000  O
  O10      1.0000 0.80090  0.93170  0.63270  Biso   1.000  O
  O11      1.0000 0.80020  0.63360  0.93030  Biso   1.000  O
  O12      1.0000 0.93060  0.63280  0.80270  Biso   1.000  O
  O13      1.0000 0.80040  0.63340  0.63440  Biso   1.000  O
  O14      1.0000 0.93200  0.63320  0.63430  Biso   1.000  O
  O15      1.0000 0.93170  0.80090  0.63270  Biso   1.000  O
  O16      1.0000 0.36640  0.19980  0.06970  Biso   1.000  O
  O17      1.0000 0.36720  0.06940  0.19730  Biso   1.000  O
  O18      1.0000 0.36660  0.19960  0.36560  Biso   1.000  O
  O19      1.0000 0.36680  0.06800  0.36570  Biso   1.000  O
  O20      1.0000 0.19910  0.06830  0.36730  Biso   1.000  O
  O21      1.0000 0.24870  0.24870  0.25120  Biso   1.000  O
  O22      1.0000 0.36630  0.36630  0.06820  Biso   1.000  O
  O23      1.0000 0.36620  0.36620  0.19910  Biso   1.000  O
  O24      1.0000 0.75130  0.75130  0.74880  Biso   1.000  O
  O25      1.0000 0.63370  0.63370  0.93180  Biso   1.000  O
  O26      1.0000 0.63380  0.63380  0.80090  Biso   1.000  O
  Zn9      1.0000 0.00000  0.00000  1.00000  Biso   1.000  Zn
  Zn10     1.0000 0.17671  0.82329  1.00000  Biso   1.000  Zn
  Zn11     1.0000 1.00000  0.82329  1.00000  Biso   1.000  Zn
  Zn12     1.0000 0.00001  0.82330  0.17668  Biso   1.000  Zn
  Zn13     1.0000 0.42181  0.42181  0.59839  Biso   1.000  Zn
  Zn14     1.0000 0.59852  0.24510  0.59839  Biso   1.000  Zn
  Zn15     1.0000 0.59852  0.42181  0.59839  Biso   1.000  Zn
  Zn16     1.0000 0.59851  0.42180  0.42171  Biso   1.000  Zn
  H13      1.0000 0.83950  0.18762  0.83954  Biso   1.000  H
  H14      1.0000 0.36434  0.66281  0.13333  Biso   1.000  H
  H15      1.0000 0.83950  0.95663  0.83954  Biso   1.000  H
  H16      1.0000 0.13337  0.66282  0.36428  Biso   1.000  H
  H17      1.0000 0.83952  0.66281  0.13333  Biso   1.000  H
  H18      1.0000 0.36433  0.95663  0.83954  Biso   1.000  H
  H19      1.0000 0.83953  0.66282  0.36428  Biso   1.000  H
  H20      1.0000 0.13334  0.18762  0.83954  Biso   1.000  H
  H21      1.0000 0.83953  0.95666  0.36428  Biso   1.000  H
  H22      1.0000 0.36433  0.66279  0.83954  Biso   1.000  H
  H23      1.0000 0.83952  0.18763  0.13333  Biso   1.000  H
  H24      1.0000 0.13334  0.66279  0.83954  Biso   1.000  H
  H25      1.0000 0.23419  0.58230  0.75885  Biso   1.000  H
  H26      1.0000 0.75900  0.05747  0.46506  Biso   1.000  H
  H27      1.0000 0.46518  0.58230  0.75885  Biso   1.000  H
  H28      1.0000 0.75899  0.28844  0.23411  Biso   1.000  H
  H29      1.0000 0.75900  0.58229  0.46506  Biso   1.000  H
  H30      1.0000 0.46518  0.05748  0.75885  Biso   1.000  H
  H31      1.0000 0.75899  0.58228  0.23411  Biso   1.000  H
  H32      1.0000 0.23419  0.28847  0.75885  Biso   1.000  H
  H33      1.0000 0.46515  0.58228  0.23411  Biso   1.000  H
  H34      1.0000 0.75902  0.05748  0.75885  Biso   1.000  H
  H35      1.0000 0.23418  0.58229  0.46506  Biso   1.000  H
  H36      1.0000 0.75902  0.28847  0.75885  Biso   1.000  H
  C31      1.0000 0.81665  0.16150  0.81669  Biso   1.000  C
  C32      1.0000 0.33823  0.63996  0.20514  Biso   1.000  C
  C33      1.0000 0.81665  0.02846  0.81669  Biso   1.000  C
  C34      1.0000 0.20519  0.63997  0.33816  Biso   1.000  C
  C35      1.0000 0.81667  0.63996  0.20514  Biso   1.000  C
  C36      1.0000 0.33821  0.02846  0.81669  Biso   1.000  C
  C37      1.0000 0.81668  0.63997  0.33816  Biso   1.000  C
  C38      1.0000 0.20517  0.16150  0.81669  Biso   1.000  C
  C39      1.0000 0.81668  0.02848  0.33816  Biso   1.000  C
  C40      1.0000 0.33821  0.63994  0.81669  Biso   1.000  C
  C41      1.0000 0.81667  0.16152  0.20514  Biso   1.000  C
  C42      1.0000 0.20517  0.63994  0.81669  Biso   1.000  C
  C43      1.0000 0.26031  0.60516  0.78170  Biso   1.000  C
  C44      1.0000 0.78185  0.08358  0.39325  Biso   1.000  C
  C45      1.0000 0.39336  0.60516  0.78170  Biso   1.000  C
  C46      1.0000 0.78185  0.21662  0.26023  Biso   1.000  C
  C47      1.0000 0.78185  0.60514  0.39325  Biso   1.000  C
  C48      1.0000 0.39336  0.08360  0.78170  Biso   1.000  C
  C49      1.0000 0.78185  0.60513  0.26023  Biso   1.000  C
  C50      1.0000 0.26031  0.21664  0.78170  Biso   1.000  C
  C51      1.0000 0.39333  0.60513  0.26023  Biso   1.000  C
  C52      1.0000 0.78187  0.08360  0.78170  Biso   1.000  C
  C53      1.0000 0.26029  0.60514  0.39325  Biso   1.000  C
  C54      1.0000 0.78187  0.21664  0.78170  Biso   1.000  C
  C55      1.0000 0.90205  0.00959  0.90207  Biso   1.000  C
  C56      1.0000 0.84440  0.06723  0.84443  Biso   1.000  C
  C57      1.0000 0.18631  0.72536  0.18627  Biso   1.000  C
  C58      1.0000 0.24396  0.66771  0.24391  Biso   1.000  C
  C59      1.0000 0.90206  0.72536  0.18627  Biso   1.000  C
  C60      1.0000 0.84442  0.66771  0.24391  Biso   1.000  C
  C61      1.0000 0.18630  0.00959  0.90207  Biso   1.000  C
  C62      1.0000 0.24394  0.06723  0.84443  Biso   1.000  C
  C63      1.0000 0.90206  0.00960  0.18627  Biso   1.000  C
  C64      1.0000 0.84442  0.06725  0.24391  Biso   1.000  C
  C65      1.0000 0.18630  0.72534  0.90207  Biso   1.000  C
  C66      1.0000 0.24394  0.66769  0.84443  Biso   1.000  C
  C67      1.0000 0.41223  0.51976  0.69632  Biso   1.000  C
  C68      1.0000 0.35459  0.57741  0.75396  Biso   1.000  C
  C69      1.0000 0.69646  0.23550  0.41212  Biso   1.000  C
  C70      1.0000 0.75410  0.17785  0.35448  Biso   1.000  C
  C71      1.0000 0.69646  0.51974  0.41212  Biso   1.000  C
  C72      1.0000 0.75410  0.57739  0.35448  Biso   1.000  C
  C73      1.0000 0.41223  0.23551  0.69632  Biso   1.000  C
  C74      1.0000 0.35458  0.17787  0.75396  Biso   1.000  C
  C75      1.0000 0.41221  0.51974  0.41212  Biso   1.000  C
  C76      1.0000 0.35456  0.57739  0.35448  Biso   1.000  C
  C77      1.0000 0.69647  0.23551  0.69632  Biso   1.000  C
  C78      1.0000 0.75412  0.17787  0.75396  Biso   1.000  C
  O27      1.0000 0.04418  0.86747  0.04417  Biso   1.000  O
  O28      1.0000 0.55434  0.37763  0.55422  Biso   1.000  O
  O29      1.0000 0.92613  0.04774  0.92614  Biso   1.000  O
  O30      1.0000 0.22446  0.74943  0.09997  Biso   1.000  O
  O31      1.0000 0.92613  0.92327  0.92614  Biso   1.000  O
  O32      1.0000 0.10000  0.74944  0.22442  Biso   1.000  O
  O33      1.0000 0.92614  0.74943  0.09997  Biso   1.000  O
  O34      1.0000 0.22445  0.92327  0.92614  Biso   1.000  O
  O35      1.0000 0.92614  0.74944  0.22442  Biso   1.000  O
  O36      1.0000 0.09998  0.04774  0.92614  Biso   1.000  O
  O37      1.0000 0.92614  0.92329  0.22442  Biso   1.000  O
  O38      1.0000 0.22445  0.74942  0.92614  Biso   1.000  O
  O39      1.0000 0.92614  0.04775  0.09997  Biso   1.000  O
  O40      1.0000 0.09998  0.74942  0.92614  Biso   1.000  O
  O41      1.0000 0.37407  0.49568  0.67225  Biso   1.000  O
  O42      1.0000 0.67238  0.19735  0.49842  Biso   1.000  O
  O43      1.0000 0.49854  0.49568  0.67225  Biso   1.000  O
  O44      1.0000 0.67238  0.32181  0.37397  Biso   1.000  O
  O45      1.0000 0.67239  0.49567  0.49842  Biso   1.000  O
  O46      1.0000 0.49854  0.19735  0.67225  Biso   1.000  O
  O47      1.0000 0.67238  0.49566  0.37397  Biso   1.000  O
  O48      1.0000 0.37407  0.32183  0.67225  Biso   1.000  O
  O49      1.0000 0.49852  0.49566  0.37397  Biso   1.000  O
  O50      1.0000 0.67239  0.19735  0.67225  Biso   1.000  O
  O51      1.0000 0.37406  0.49567  0.49842  Biso   1.000  O
  O52      1.0000 0.67239  0.32183  0.67225  Biso   1.000  O
