data_image0
_cell_length_a       18.101
_cell_length_b       18.101
_cell_length_c       18.101
_cell_angle_alpha    60.0036
_cell_angle_beta     60.0036
_cell_angle_gamma    60.0001

_symmetry_space_group_name_H-M    "P 1"
_symmetry_int_tables_number       1

loop_
  _symmetry_equiv_pos_as_xyz
  'x, y, z'

loop_
  _atom_site_label
  _atom_site_occupancy
  _atom_site_fract_x
  _atom_site_fract_y
  _atom_site_fract_z
  _atom_site_thermal_displace_type
  _atom_site_B_iso_or_equiv
  _atom_site_type_symbol
  C1       1.0000 0.11865  0.29385  0.29380  Biso   1.000  C
  C2       1.0000 0.70615  0.88135  0.70620  Biso   1.000  C
  C3       1.0000 0.88135  0.70615  0.70620  Biso   1.000  C
  C4       1.0000 0.29385  0.11865  0.29380  Biso   1.000  C
  C5       1.0000 0.29392  0.29392  0.11841  Biso   1.000  C
  C6       1.0000 0.29367  0.29367  0.29393  Biso   1.000  C
  C7       1.0000 0.70608  0.70608  0.88159  Biso   1.000  C
  C8       1.0000 0.70633  0.70633  0.70607  Biso   1.000  C
  C9       1.0000 0.15480  0.45200  0.93360  Biso   1.000  C
  C10      1.0000 0.93280  0.45040  0.15620  Biso   1.000  C
  C11      1.0000 0.93080  0.15620  0.44950  Biso   1.000  C
  C12      1.0000 0.54800  0.84520  0.06640  Biso   1.000  C
  C13      1.0000 0.54960  0.06720  0.84380  Biso   1.000  C
  C14      1.0000 0.84380  0.06920  0.55050  Biso   1.000  C
  C15      1.0000 0.84520  0.54800  0.06640  Biso   1.000  C
  C16      1.0000 0.06720  0.54960  0.84380  Biso   1.000  C
  C17      1.0000 0.06920  0.84380  0.55050  Biso   1.000  C
  C18      1.0000 0.45200  0.15480  0.93360  Biso   1.000  C
  C19      1.0000 0.45040  0.93280  0.15620  Biso   1.000  C
  C20      1.0000 0.15620  0.93080  0.44950  Biso   1.000  C
  C21      1.0000 0.12160  0.38280  0.11390  Biso   1.000  C
  C22      1.0000 0.05170  0.44790  0.05410  Biso   1.000  C
  C23      1.0000 0.09080  0.47360  0.96020  Biso   1.000  C
  C24      1.0000 0.96010  0.47210  0.09240  Biso   1.000  C
  C25      1.0000 0.11800  0.38220  0.38200  Biso   1.000  C
  C26      1.0000 0.95710  0.09250  0.47340  Biso   1.000  C
  C27      1.0000 0.61720  0.87840  0.88610  Biso   1.000  C
  C28      1.0000 0.55210  0.94830  0.94590  Biso   1.000  C
  C29      1.0000 0.52640  0.90920  0.03980  Biso   1.000  C
  C30      1.0000 0.52790  0.03990  0.90760  Biso   1.000  C
  C31      1.0000 0.61780  0.88200  0.61800  Biso   1.000  C
  C32      1.0000 0.90750  0.04290  0.52660  Biso   1.000  C
  C33      1.0000 0.87840  0.61720  0.88610  Biso   1.000  C
  C34      1.0000 0.94830  0.55210  0.94590  Biso   1.000  C
  C35      1.0000 0.90920  0.52640  0.03980  Biso   1.000  C
  C36      1.0000 0.03990  0.52790  0.90760  Biso   1.000  C
  C37      1.0000 0.88200  0.61780  0.61800  Biso   1.000  C
  C38      1.0000 0.04290  0.90750  0.52660  Biso   1.000  C
  C39      1.0000 0.38280  0.12160  0.11390  Biso   1.000  C
  C40      1.0000 0.44790  0.05170  0.05410  Biso   1.000  C
  C41      1.0000 0.47360  0.09080  0.96020  Biso   1.000  C
  C42      1.0000 0.47210  0.96010  0.09240  Biso   1.000  C
  C43      1.0000 0.38220  0.11800  0.38200  Biso   1.000  C
  C44      1.0000 0.09250  0.95710  0.47340  Biso   1.000  C
  C45      1.0000 0.38310  0.38310  0.11400  Biso   1.000  C
  C46      1.0000 0.11690  0.11690  0.38110  Biso   1.000  C
  C47      1.0000 0.05150  0.05150  0.45050  Biso   1.000  C
  C48      1.0000 0.61690  0.61690  0.88600  Biso   1.000  C
  C49      1.0000 0.88310  0.88310  0.61890  Biso   1.000  C
  C50      1.0000 0.94850  0.94850  0.54950  Biso   1.000  C
  C51      1.0000 0.19980  0.36640  0.06970  Biso   1.000  C
  C52      1.0000 0.06940  0.36720  0.19730  Biso   1.000  C
  C53      1.0000 0.19960  0.36660  0.36560  Biso   1.000  C
  C54      1.0000 0.06800  0.36680  0.36570  Biso   1.000  C
  C55      1.0000 0.06830  0.19910  0.36730  Biso   1.000  C
  C56      1.0000 0.63360  0.80020  0.93030  Biso   1.000  C
  C57      1.0000 0.63280  0.93060  0.80270  Biso   1.000  C
  C58      1.0000 0.63340  0.80040  0.63440  Biso   1.000  C
  C59      1.0000 0.63320  0.93200  0.63430  Biso   1.000  C
  C60      1.0000 0.80090  0.93170  0.63270  Biso   1.000  C
  C61      1.0000 0.80020  0.63360  0.93030  Biso   1.000  C
  C62      1.0000 0.93060  0.63280  0.80270  Biso   1.000  C
  C63      1.0000 0.80040  0.63340  0.63440  Biso   1.000  C
  C64      1.0000 0.93200  0.63320  0.63430  Biso   1.000  C
  C65      1.0000 0.93170  0.80090  0.63270  Biso   1.000  C
  C66      1.0000 0.36640  0.19980  0.06970  Biso   1.000  C
  C67      1.0000 0.36720  0.06940  0.19730  Biso   1.000  C
  C68      1.0000 0.36660  0.19960  0.36560  Biso   1.000  C
  C69      1.0000 0.36680  0.06800  0.36570  Biso   1.000  C
  C70      1.0000 0.19910  0.06830  0.36730  Biso   1.000  C
  C71      1.0000 0.24870  0.24870  0.25120  Biso   1.000  C
  C72      1.0000 0.36630  0.36630  0.06820  Biso   1.000  C
  C73      1.0000 0.36620  0.36620  0.19910  Biso   1.000  C
  C74      1.0000 0.75130  0.75130  0.74880  Biso   1.000  C
  C75      1.0000 0.63370  0.63370  0.93180  Biso   1.000  C
  C76      1.0000 0.63380  0.63380  0.80090  Biso   1.000  C
  O1       1.0000 0.90960  0.75252  0.43929  Biso   1.000  O
  O2       1.0000 0.08718  0.75252  0.26173  Biso   1.000  O
  O3       1.0000 0.90959  0.75251  0.26174  Biso   1.000  O
  O4       1.0000 0.90960  0.93010  0.26173  Biso   1.000  O
  O5       1.0000 0.53189  0.33009  0.66186  Biso   1.000  O
  O6       1.0000 0.35431  0.33010  0.83942  Biso   1.000  O
  O7       1.0000 0.53190  0.15252  0.83942  Biso   1.000  O
  O8       1.0000 0.53190  0.33011  0.83942  Biso   1.000  O
  O9       1.0000 0.07333  0.58719  0.60623  Biso   1.000  O
  O10      1.0000 0.27634  0.58723  0.40313  Biso   1.000  O
  O11      1.0000 0.76665  0.89392  0.09647  Biso   1.000  O
  O12      1.0000 0.76665  0.09690  0.09647  Biso   1.000  O
  O13      1.0000 0.76667  0.09691  0.40313  Biso   1.000  O
  O14      1.0000 0.76662  0.89390  0.60623  Biso   1.000  O
  O15      1.0000 0.07336  0.58722  0.09647  Biso   1.000  O
  O16      1.0000 0.27633  0.58722  0.09647  Biso   1.000  O
  O17      1.0000 0.27633  0.89392  0.09647  Biso   1.000  O
  O18      1.0000 0.07336  0.09690  0.09647  Biso   1.000  O
  O19      1.0000 0.76667  0.58723  0.40313  Biso   1.000  O
  O20      1.0000 0.76662  0.58719  0.60623  Biso   1.000  O
  O21      1.0000 0.36816  0.49543  0.49492  Biso   1.000  O
  O22      1.0000 0.16514  0.49539  0.69802  Biso   1.000  O
  O23      1.0000 0.67484  0.98573  0.00468  Biso   1.000  O
  O24      1.0000 0.67484  0.18870  0.00468  Biso   1.000  O
  O25      1.0000 0.67482  0.49539  0.69802  Biso   1.000  O
  O26      1.0000 0.67486  0.49543  0.49492  Biso   1.000  O
  O27      1.0000 0.36813  0.98573  0.00468  Biso   1.000  O
  O28      1.0000 0.16516  0.18870  0.00468  Biso   1.000  O
  O29      1.0000 0.16516  0.49541  0.00468  Biso   1.000  O
  O30      1.0000 0.36813  0.49541  0.00468  Biso   1.000  O
  O31      1.0000 0.67482  0.98571  0.69802  Biso   1.000  O
  O32      1.0000 0.67486  0.18873  0.49492  Biso   1.000  O
  O33      1.0000 0.13808  0.56854  0.57877  Biso   1.000  O
  O34      1.0000 0.24889  0.56859  0.46787  Biso   1.000  O
  O35      1.0000 0.74800  0.95868  0.07783  Biso   1.000  O
  O36      1.0000 0.74800  0.06944  0.07783  Biso   1.000  O
  O37      1.0000 0.74802  0.06946  0.46787  Biso   1.000  O
  O38      1.0000 0.74797  0.95865  0.57877  Biso   1.000  O
  O39      1.0000 0.13811  0.56857  0.07783  Biso   1.000  O
  O40      1.0000 0.24887  0.56857  0.07783  Biso   1.000  O
  O41      1.0000 0.24887  0.95868  0.07783  Biso   1.000  O
  O42      1.0000 0.13811  0.06944  0.07783  Biso   1.000  O
  O43      1.0000 0.74802  0.56859  0.46787  Biso   1.000  O
  O44      1.0000 0.74797  0.56854  0.57877  Biso   1.000  O
  O45      1.0000 0.30340  0.51408  0.52238  Biso   1.000  O
  O46      1.0000 0.19260  0.51403  0.63328  Biso   1.000  O
  O47      1.0000 0.69349  0.01319  0.02332  Biso   1.000  O
  O48      1.0000 0.69348  0.12395  0.02332  Biso   1.000  O
  O49      1.0000 0.69346  0.51403  0.63328  Biso   1.000  O
  O50      1.0000 0.69351  0.51408  0.52238  Biso   1.000  O
  O51      1.0000 0.30338  0.01319  0.02332  Biso   1.000  O
  O52      1.0000 0.19262  0.12395  0.02332  Biso   1.000  O
  O53      1.0000 0.19262  0.51405  0.02332  Biso   1.000  O
  O54      1.0000 0.30337  0.51405  0.02332  Biso   1.000  O
  O55      1.0000 0.69347  0.01317  0.63328  Biso   1.000  O
  O56      1.0000 0.69351  0.12397  0.52238  Biso   1.000  O
  O57      1.0000 0.09552  0.65540  0.44762  Biso   1.000  O
  O58      1.0000 0.15481  0.59611  0.50690  Biso   1.000  O
  O59      1.0000 0.81246  0.93843  0.16462  Biso   1.000  O
  O60      1.0000 0.75317  0.99771  0.10534  Biso   1.000  O
  O61      1.0000 0.81247  0.93844  0.44762  Biso   1.000  O
  O62      1.0000 0.75319  0.99773  0.50690  Biso   1.000  O
  O63      1.0000 0.09551  0.65538  0.16462  Biso   1.000  O
  O64      1.0000 0.15479  0.59609  0.10534  Biso   1.000  O
  O65      1.0000 0.09551  0.93843  0.16462  Biso   1.000  O
  O66      1.0000 0.15479  0.99771  0.10534  Biso   1.000  O
  O67      1.0000 0.81247  0.65540  0.44762  Biso   1.000  O
  O68      1.0000 0.75319  0.59611  0.50690  Biso   1.000  O
  O69      1.0000 0.34596  0.42723  0.65353  Biso   1.000  O
  O70      1.0000 0.28667  0.48651  0.59425  Biso   1.000  O
  O71      1.0000 0.62903  0.14419  0.93653  Biso   1.000  O
  O72      1.0000 0.68832  0.08491  0.99581  Biso   1.000  O
  O73      1.0000 0.62901  0.42723  0.65353  Biso   1.000  O
  O74      1.0000 0.68830  0.48651  0.59425  Biso   1.000  O
  O75      1.0000 0.34598  0.14419  0.93653  Biso   1.000  O
  O76      1.0000 0.28670  0.08491  0.99581  Biso   1.000  O
  O77      1.0000 0.34598  0.42724  0.93653  Biso   1.000  O
  O78      1.0000 0.28670  0.48653  0.99581  Biso   1.000  O
  O79      1.0000 0.62901  0.14418  0.65353  Biso   1.000  O
  O80      1.0000 0.68830  0.08489  0.59425  Biso   1.000  O
  O81      1.0000 0.95399  0.79691  0.30612  Biso   1.000  O
  O82      1.0000 0.48750  0.28571  0.79503  Biso   1.000  O
  O83      1.0000 0.01036  0.67824  0.48710  Biso   1.000  O
  O84      1.0000 0.13500  0.67823  0.36248  Biso   1.000  O
  O85      1.0000 0.83530  0.85327  0.18746  Biso   1.000  O
  O86      1.0000 0.83530  0.97791  0.18746  Biso   1.000  O
  O87      1.0000 0.83531  0.97792  0.36248  Biso   1.000  O
  O88      1.0000 0.83532  0.85328  0.48710  Biso   1.000  O
  O89      1.0000 0.01035  0.67822  0.18746  Biso   1.000  O
  O90      1.0000 0.13499  0.67822  0.18746  Biso   1.000  O
  O91      1.0000 0.13499  0.85327  0.18746  Biso   1.000  O
  O92      1.0000 0.01035  0.97791  0.18746  Biso   1.000  O
  O93      1.0000 0.83531  0.67823  0.36248  Biso   1.000  O
  O94      1.0000 0.83531  0.67824  0.48710  Biso   1.000  O
  O95      1.0000 0.43112  0.40438  0.61405  Biso   1.000  O
  O96      1.0000 0.30649  0.40439  0.73867  Biso   1.000  O
  O97      1.0000 0.60619  0.10471  0.91369  Biso   1.000  O
  O98      1.0000 0.60619  0.22935  0.91369  Biso   1.000  O
  O99      1.0000 0.60618  0.40439  0.73867  Biso   1.000  O
  O100     1.0000 0.60617  0.40438  0.61405  Biso   1.000  O
  O101     1.0000 0.43114  0.10471  0.91369  Biso   1.000  O
  O102     1.0000 0.30649  0.22935  0.91369  Biso   1.000  O
  O103     1.0000 0.30649  0.40440  0.91369  Biso   1.000  O
  O104     1.0000 0.43114  0.40440  0.91369  Biso   1.000  O
  O105     1.0000 0.60618  0.10470  0.73867  Biso   1.000  O
  O106     1.0000 0.60617  0.22934  0.61405  Biso   1.000  O
