data_image0
_cell_length_a       18.101
_cell_length_b       18.101
_cell_length_c       18.101
_cell_angle_alpha    60.0036
_cell_angle_beta     60.0036
_cell_angle_gamma    60.0001

_symmetry_space_group_name_H-M    "P 1"
_symmetry_int_tables_number       1

loop_
  _symmetry_equiv_pos_as_xyz
  'x, y, z'

loop_
  _atom_site_label
  _atom_site_occupancy
  _atom_site_fract_x
  _atom_site_fract_y
  _atom_site_fract_z
  _atom_site_thermal_displace_type
  _atom_site_B_iso_or_equiv
  _atom_site_type_symbol
  C1       1.0000 0.11865  0.29385  0.29380  Biso   1.000  C
  C2       1.0000 0.70615  0.88135  0.70620  Biso   1.000  C
  C3       1.0000 0.88135  0.70615  0.70620  Biso   1.000  C
  C4       1.0000 0.29385  0.11865  0.29380  Biso   1.000  C
  C5       1.0000 0.29392  0.29392  0.11841  Biso   1.000  C
  C6       1.0000 0.29367  0.29367  0.29393  Biso   1.000  C
  C7       1.0000 0.70608  0.70608  0.88159  Biso   1.000  C
  C8       1.0000 0.70633  0.70633  0.70607  Biso   1.000  C
  C9       1.0000 0.15480  0.45200  0.93360  Biso   1.000  C
  C10      1.0000 0.93280  0.45040  0.15620  Biso   1.000  C
  C11      1.0000 0.93080  0.15620  0.44950  Biso   1.000  C
  C12      1.0000 0.54800  0.84520  0.06640  Biso   1.000  C
  C13      1.0000 0.54960  0.06720  0.84380  Biso   1.000  C
  C14      1.0000 0.84380  0.06920  0.55050  Biso   1.000  C
  C15      1.0000 0.84520  0.54800  0.06640  Biso   1.000  C
  C16      1.0000 0.06720  0.54960  0.84380  Biso   1.000  C
  C17      1.0000 0.06920  0.84380  0.55050  Biso   1.000  C
  C18      1.0000 0.45200  0.15480  0.93360  Biso   1.000  C
  C19      1.0000 0.45040  0.93280  0.15620  Biso   1.000  C
  C20      1.0000 0.15620  0.93080  0.44950  Biso   1.000  C
  C21      1.0000 0.12160  0.38280  0.11390  Biso   1.000  C
  C22      1.0000 0.05170  0.44790  0.05410  Biso   1.000  C
  C23      1.0000 0.09080  0.47360  0.96020  Biso   1.000  C
  C24      1.0000 0.96010  0.47210  0.09240  Biso   1.000  C
  C25      1.0000 0.11800  0.38220  0.38200  Biso   1.000  C
  C26      1.0000 0.95710  0.09250  0.47340  Biso   1.000  C
  C27      1.0000 0.61720  0.87840  0.88610  Biso   1.000  C
  C28      1.0000 0.55210  0.94830  0.94590  Biso   1.000  C
  C29      1.0000 0.52640  0.90920  0.03980  Biso   1.000  C
  C30      1.0000 0.52790  0.03990  0.90760  Biso   1.000  C
  C31      1.0000 0.61780  0.88200  0.61800  Biso   1.000  C
  C32      1.0000 0.90750  0.04290  0.52660  Biso   1.000  C
  C33      1.0000 0.87840  0.61720  0.88610  Biso   1.000  C
  C34      1.0000 0.94830  0.55210  0.94590  Biso   1.000  C
  C35      1.0000 0.90920  0.52640  0.03980  Biso   1.000  C
  C36      1.0000 0.03990  0.52790  0.90760  Biso   1.000  C
  C37      1.0000 0.88200  0.61780  0.61800  Biso   1.000  C
  C38      1.0000 0.04290  0.90750  0.52660  Biso   1.000  C
  C39      1.0000 0.38280  0.12160  0.11390  Biso   1.000  C
  C40      1.0000 0.44790  0.05170  0.05410  Biso   1.000  C
  C41      1.0000 0.47360  0.09080  0.96020  Biso   1.000  C
  C42      1.0000 0.47210  0.96010  0.09240  Biso   1.000  C
  C43      1.0000 0.38220  0.11800  0.38200  Biso   1.000  C
  C44      1.0000 0.09250  0.95710  0.47340  Biso   1.000  C
  C45      1.0000 0.38310  0.38310  0.11400  Biso   1.000  C
  C46      1.0000 0.11690  0.11690  0.38110  Biso   1.000  C
  C47      1.0000 0.05150  0.05150  0.45050  Biso   1.000  C
  C48      1.0000 0.61690  0.61690  0.88600  Biso   1.000  C
  C49      1.0000 0.88310  0.88310  0.61890  Biso   1.000  C
  C50      1.0000 0.94850  0.94850  0.54950  Biso   1.000  C
  C51      1.0000 0.19980  0.36640  0.06970  Biso   1.000  C
  C52      1.0000 0.06940  0.36720  0.19730  Biso   1.000  C
  C53      1.0000 0.19960  0.36660  0.36560  Biso   1.000  C
  C54      1.0000 0.06800  0.36680  0.36570  Biso   1.000  C
  C55      1.0000 0.06830  0.19910  0.36730  Biso   1.000  C
  C56      1.0000 0.63360  0.80020  0.93030  Biso   1.000  C
  C57      1.0000 0.63280  0.93060  0.80270  Biso   1.000  C
  C58      1.0000 0.63340  0.80040  0.63440  Biso   1.000  C
  C59      1.0000 0.63320  0.93200  0.63430  Biso   1.000  C
  C60      1.0000 0.80090  0.93170  0.63270  Biso   1.000  C
  C61      1.0000 0.80020  0.63360  0.93030  Biso   1.000  C
  C62      1.0000 0.93060  0.63280  0.80270  Biso   1.000  C
  C63      1.0000 0.80040  0.63340  0.63440  Biso   1.000  C
  C64      1.0000 0.93200  0.63320  0.63430  Biso   1.000  C
  C65      1.0000 0.93170  0.80090  0.63270  Biso   1.000  C
  C66      1.0000 0.36640  0.19980  0.06970  Biso   1.000  C
  C67      1.0000 0.36720  0.06940  0.19730  Biso   1.000  C
  C68      1.0000 0.36660  0.19960  0.36560  Biso   1.000  C
  C69      1.0000 0.36680  0.06800  0.36570  Biso   1.000  C
  C70      1.0000 0.19910  0.06830  0.36730  Biso   1.000  C
  C71      1.0000 0.24870  0.24870  0.25120  Biso   1.000  C
  C72      1.0000 0.36630  0.36630  0.06820  Biso   1.000  C
  C73      1.0000 0.36620  0.36620  0.19910  Biso   1.000  C
  C74      1.0000 0.75130  0.75130  0.74880  Biso   1.000  C
  C75      1.0000 0.63370  0.63370  0.93180  Biso   1.000  C
  C76      1.0000 0.63380  0.63380  0.80090  Biso   1.000  C
  O1       1.0000 0.60020  0.39974  0.39986  Biso   1.000  O
  O2       1.0000 0.42230  0.39975  0.57775  Biso   1.000  O
  O3       1.0000 0.42229  0.57765  0.39986  Biso   1.000  O
  O4       1.0000 0.42229  0.39974  0.39986  Biso   1.000  O
  O5       1.0000 0.86713  0.97740  0.97762  Biso   1.000  O
  O6       1.0000 0.04504  0.97739  0.79974  Biso   1.000  O
  O7       1.0000 0.04505  0.97740  0.97762  Biso   1.000  O
  O8       1.0000 0.04504  0.79949  0.97762  Biso   1.000  O
  O9       1.0000 0.78959  0.23491  0.54013  Biso   1.000  O
  O10      1.0000 0.58509  0.23487  0.74472  Biso   1.000  O
  O11      1.0000 0.27999  0.74448  0.23506  Biso   1.000  O
  O12      1.0000 0.27999  0.54002  0.23506  Biso   1.000  O
  O13      1.0000 0.27996  0.53999  0.74472  Biso   1.000  O
  O14      1.0000 0.28001  0.74450  0.54013  Biso   1.000  O
  O15      1.0000 0.78958  0.23489  0.23506  Biso   1.000  O
  O16      1.0000 0.58512  0.23489  0.23506  Biso   1.000  O
  O17      1.0000 0.58512  0.74448  0.23506  Biso   1.000  O
  O18      1.0000 0.78958  0.54002  0.23506  Biso   1.000  O
  O19      1.0000 0.27996  0.23487  0.74472  Biso   1.000  O
  O20      1.0000 0.28001  0.23491  0.54013  Biso   1.000  O
  O21      1.0000 0.67774  0.14223  0.83735  Biso   1.000  O
  O22      1.0000 0.88224  0.14227  0.63276  Biso   1.000  O
  O23      1.0000 0.18734  0.83712  0.14243  Biso   1.000  O
  O24      1.0000 0.18734  0.63266  0.14243  Biso   1.000  O
  O25      1.0000 0.18737  0.14227  0.63276  Biso   1.000  O
  O26      1.0000 0.18733  0.14223  0.83735  Biso   1.000  O
  O27      1.0000 0.67776  0.83712  0.14243  Biso   1.000  O
  O28      1.0000 0.88222  0.63266  0.14243  Biso   1.000  O
  O29      1.0000 0.88221  0.14225  0.14243  Biso   1.000  O
  O30      1.0000 0.67776  0.14225  0.14243  Biso   1.000  O
  O31      1.0000 0.18737  0.83715  0.63276  Biso   1.000  O
  O32      1.0000 0.18733  0.63264  0.83735  Biso   1.000  O
  O33      1.0000 0.76181  0.21564  0.60646  Biso   1.000  O
  O34      1.0000 0.65142  0.21559  0.71695  Biso   1.000  O
  O35      1.0000 0.26071  0.71670  0.21579  Biso   1.000  O
  O36      1.0000 0.26072  0.60635  0.21579  Biso   1.000  O
  O37      1.0000 0.26069  0.60632  0.71695  Biso   1.000  O
  O38      1.0000 0.26073  0.71672  0.60646  Biso   1.000  O
  O39      1.0000 0.76179  0.21562  0.21579  Biso   1.000  O
  O40      1.0000 0.65145  0.21562  0.21579  Biso   1.000  O
  O41      1.0000 0.65145  0.71670  0.21579  Biso   1.000  O
  O42      1.0000 0.76179  0.60635  0.21579  Biso   1.000  O
  O43      1.0000 0.26069  0.21559  0.71695  Biso   1.000  O
  O44      1.0000 0.26074  0.21564  0.60646  Biso   1.000  O
  O45      1.0000 0.70552  0.16150  0.77103  Biso   1.000  O
  O46      1.0000 0.81591  0.16155  0.66054  Biso   1.000  O
  O47      1.0000 0.20662  0.77079  0.16170  Biso   1.000  O
  O48      1.0000 0.20662  0.66044  0.16170  Biso   1.000  O
  O49      1.0000 0.20665  0.16155  0.66054  Biso   1.000  O
  O50      1.0000 0.20660  0.16150  0.77103  Biso   1.000  O
  O51      1.0000 0.70554  0.77079  0.16170  Biso   1.000  O
  O52      1.0000 0.81588  0.66044  0.16170  Biso   1.000  O
  O53      1.0000 0.81588  0.16152  0.16170  Biso   1.000  O
  O54      1.0000 0.70554  0.16152  0.16170  Biso   1.000  O
  O55      1.0000 0.20665  0.77082  0.66054  Biso   1.000  O
  O56      1.0000 0.20660  0.66042  0.77103  Biso   1.000  O
  O57      1.0000 0.60820  0.30281  0.58573  Biso   1.000  O
  O58      1.0000 0.66744  0.24358  0.64496  Biso   1.000  O
  O59      1.0000 0.32535  0.58563  0.30294  Biso   1.000  O
  O60      1.0000 0.26611  0.64486  0.24372  Biso   1.000  O
  O61      1.0000 0.32536  0.58564  0.58573  Biso   1.000  O
  O62      1.0000 0.26613  0.64488  0.64496  Biso   1.000  O
  O63      1.0000 0.60818  0.30279  0.30294  Biso   1.000  O
  O64      1.0000 0.66741  0.24356  0.24372  Biso   1.000  O
  O65      1.0000 0.60818  0.58563  0.30294  Biso   1.000  O
  O66      1.0000 0.66741  0.64486  0.24372  Biso   1.000  O
  O67      1.0000 0.32536  0.30281  0.58573  Biso   1.000  O
  O68      1.0000 0.26613  0.24358  0.64496  Biso   1.000  O
  O69      1.0000 0.85914  0.07433  0.79175  Biso   1.000  O
  O70      1.0000 0.79990  0.13356  0.73253  Biso   1.000  O
  O71      1.0000 0.14199  0.79151  0.07454  Biso   1.000  O
  O72      1.0000 0.20123  0.73228  0.13377  Biso   1.000  O
  O73      1.0000 0.14197  0.07433  0.79175  Biso   1.000  O
  O74      1.0000 0.20121  0.13356  0.73253  Biso   1.000  O
  O75      1.0000 0.85915  0.79151  0.07454  Biso   1.000  O
  O76      1.0000 0.79992  0.73228  0.13377  Biso   1.000  O
  O77      1.0000 0.85915  0.07435  0.07454  Biso   1.000  O
  O78      1.0000 0.79992  0.13358  0.13377  Biso   1.000  O
  O79      1.0000 0.14197  0.79150  0.79175  Biso   1.000  O
  O80      1.0000 0.20120  0.73226  0.73253  Biso   1.000  O
  O81      1.0000 0.64831  0.32547  0.50029  Biso   1.000  O
  O82      1.0000 0.52274  0.32548  0.62584  Biso   1.000  O
  O83      1.0000 0.34802  0.62574  0.32561  Biso   1.000  O
  O84      1.0000 0.34802  0.50018  0.32561  Biso   1.000  O
  O85      1.0000 0.34803  0.50019  0.62584  Biso   1.000  O
  O86      1.0000 0.34803  0.62575  0.50029  Biso   1.000  O
  O87      1.0000 0.64830  0.32546  0.32561  Biso   1.000  O
  O88      1.0000 0.52273  0.32546  0.32561  Biso   1.000  O
  O89      1.0000 0.52273  0.62574  0.32561  Biso   1.000  O
  O90      1.0000 0.64830  0.50018  0.32561  Biso   1.000  O
  O91      1.0000 0.34803  0.32548  0.62584  Biso   1.000  O
  O92      1.0000 0.34803  0.32547  0.50029  Biso   1.000  O
  O93      1.0000 0.81903  0.05167  0.87719  Biso   1.000  O
  O94      1.0000 0.94459  0.05166  0.75165  Biso   1.000  O
  O95      1.0000 0.11932  0.87696  0.05188  Biso   1.000  O
  O96      1.0000 0.11932  0.75140  0.05188  Biso   1.000  O
  O97      1.0000 0.11930  0.05166  0.75165  Biso   1.000  O
  O98      1.0000 0.11931  0.05167  0.87719  Biso   1.000  O
  O99      1.0000 0.81904  0.87696  0.05188  Biso   1.000  O
  O100     1.0000 0.94460  0.75140  0.05188  Biso   1.000  O
  O101     1.0000 0.94460  0.05168  0.05188  Biso   1.000  O
  O102     1.0000 0.81904  0.05168  0.05188  Biso   1.000  O
  O103     1.0000 0.11930  0.87695  0.75165  Biso   1.000  O
  O104     1.0000 0.11931  0.75139  0.87719  Biso   1.000  O
  O105     1.0000 0.46677  0.44422  0.44434  Biso   1.000  O
  O106     1.0000 0.00056  0.93292  0.93315  Biso   1.000  O
