data_image0
_cell_length_a       18.101
_cell_length_b       18.101
_cell_length_c       18.101
_cell_angle_alpha    60.0036
_cell_angle_beta     60.0036
_cell_angle_gamma    60.0001

_symmetry_space_group_name_H-M    "P 1"
_symmetry_int_tables_number       1

loop_
  _symmetry_equiv_pos_as_xyz
  'x, y, z'

loop_
  _atom_site_label
  _atom_site_occupancy
  _atom_site_fract_x
  _atom_site_fract_y
  _atom_site_fract_z
  _atom_site_thermal_displace_type
  _atom_site_B_iso_or_equiv
  _atom_site_type_symbol
  Zn1      1.0000 0.11865  0.29385  0.29380  Biso   1.000  Zn
  Zn2      1.0000 0.70615  0.88135  0.70620  Biso   1.000  Zn
  Zn3      1.0000 0.88135  0.70615  0.70620  Biso   1.000  Zn
  Zn4      1.0000 0.29385  0.11865  0.29380  Biso   1.000  Zn
  Zn5      1.0000 0.29392  0.29392  0.11841  Biso   1.000  Zn
  Zn6      1.0000 0.29367  0.29367  0.29393  Biso   1.000  Zn
  Zn7      1.0000 0.70608  0.70608  0.88159  Biso   1.000  Zn
  Zn8      1.0000 0.70633  0.70633  0.70607  Biso   1.000  Zn
  H1       1.0000 0.15480  0.45200  0.93360  Biso   1.000  H
  H2       1.0000 0.93280  0.45040  0.15620  Biso   1.000  H
  H3       1.0000 0.93080  0.15620  0.44950  Biso   1.000  H
  H4       1.0000 0.54800  0.84520  0.06640  Biso   1.000  H
  H5       1.0000 0.54960  0.06720  0.84380  Biso   1.000  H
  H6       1.0000 0.84380  0.06920  0.55050  Biso   1.000  H
  H7       1.0000 0.84520  0.54800  0.06640  Biso   1.000  H
  H8       1.0000 0.06720  0.54960  0.84380  Biso   1.000  H
  H9       1.0000 0.06920  0.84380  0.55050  Biso   1.000  H
  H10      1.0000 0.45200  0.15480  0.93360  Biso   1.000  H
  H11      1.0000 0.45040  0.93280  0.15620  Biso   1.000  H
  H12      1.0000 0.15620  0.93080  0.44950  Biso   1.000  H
  C1       1.0000 0.12160  0.38280  0.11390  Biso   1.000  C
  C2       1.0000 0.05170  0.44790  0.05410  Biso   1.000  C
  C3       1.0000 0.09080  0.47360  0.96020  Biso   1.000  C
  C4       1.0000 0.96010  0.47210  0.09240  Biso   1.000  C
  C5       1.0000 0.11800  0.38220  0.38200  Biso   1.000  C
  C6       1.0000 0.95710  0.09250  0.47340  Biso   1.000  C
  C7       1.0000 0.61720  0.87840  0.88610  Biso   1.000  C
  C8       1.0000 0.55210  0.94830  0.94590  Biso   1.000  C
  C9       1.0000 0.52640  0.90920  0.03980  Biso   1.000  C
  C10      1.0000 0.52790  0.03990  0.90760  Biso   1.000  C
  C11      1.0000 0.61780  0.88200  0.61800  Biso   1.000  C
  C12      1.0000 0.90750  0.04290  0.52660  Biso   1.000  C
  C13      1.0000 0.87840  0.61720  0.88610  Biso   1.000  C
  C14      1.0000 0.94830  0.55210  0.94590  Biso   1.000  C
  C15      1.0000 0.90920  0.52640  0.03980  Biso   1.000  C
  C16      1.0000 0.03990  0.52790  0.90760  Biso   1.000  C
  C17      1.0000 0.88200  0.61780  0.61800  Biso   1.000  C
  C18      1.0000 0.04290  0.90750  0.52660  Biso   1.000  C
  C19      1.0000 0.38280  0.12160  0.11390  Biso   1.000  C
  C20      1.0000 0.44790  0.05170  0.05410  Biso   1.000  C
  C21      1.0000 0.47360  0.09080  0.96020  Biso   1.000  C
  C22      1.0000 0.47210  0.96010  0.09240  Biso   1.000  C
  C23      1.0000 0.38220  0.11800  0.38200  Biso   1.000  C
  C24      1.0000 0.09250  0.95710  0.47340  Biso   1.000  C
  C25      1.0000 0.38310  0.38310  0.11400  Biso   1.000  C
  C26      1.0000 0.11690  0.11690  0.38110  Biso   1.000  C
  C27      1.0000 0.05150  0.05150  0.45050  Biso   1.000  C
  C28      1.0000 0.61690  0.61690  0.88600  Biso   1.000  C
  C29      1.0000 0.88310  0.88310  0.61890  Biso   1.000  C
  C30      1.0000 0.94850  0.94850  0.54950  Biso   1.000  C
  O1       1.0000 0.19980  0.36640  0.06970  Biso   1.000  O
  O2       1.0000 0.06940  0.36720  0.19730  Biso   1.000  O
  O3       1.0000 0.19960  0.36660  0.36560  Biso   1.000  O
  O4       1.0000 0.06800  0.36680  0.36570  Biso   1.000  O
  O5       1.0000 0.06830  0.19910  0.36730  Biso   1.000  O
  O6       1.0000 0.63360  0.80020  0.93030  Biso   1.000  O
  O7       1.0000 0.63280  0.93060  0.80270  Biso   1.000  O
  O8       1.0000 0.63340  0.80040  0.63440  Biso   1.000  O
  O9       1.0000 0.63320  0.93200  0.63430  Biso   1.000  O
  O10      1.0000 0.80090  0.93170  0.63270  Biso   1.000  O
  O11      1.0000 0.80020  0.63360  0.93030  Biso   1.000  O
  O12      1.0000 0.93060  0.63280  0.80270  Biso   1.000  O
  O13      1.0000 0.80040  0.63340  0.63440  Biso   1.000  O
  O14      1.0000 0.93200  0.63320  0.63430  Biso   1.000  O
  O15      1.0000 0.93170  0.80090  0.63270  Biso   1.000  O
  O16      1.0000 0.36640  0.19980  0.06970  Biso   1.000  O
  O17      1.0000 0.36720  0.06940  0.19730  Biso   1.000  O
  O18      1.0000 0.36660  0.19960  0.36560  Biso   1.000  O
  O19      1.0000 0.36680  0.06800  0.36570  Biso   1.000  O
  O20      1.0000 0.19910  0.06830  0.36730  Biso   1.000  O
  O21      1.0000 0.24870  0.24870  0.25120  Biso   1.000  O
  O22      1.0000 0.36630  0.36630  0.06820  Biso   1.000  O
  O23      1.0000 0.36620  0.36620  0.19910  Biso   1.000  O
  O24      1.0000 0.75130  0.75130  0.74880  Biso   1.000  O
  O25      1.0000 0.63370  0.63370  0.93180  Biso   1.000  O
  O26      1.0000 0.63380  0.63380  0.80090  Biso   1.000  O
  Zn9      1.0000 0.90920  0.75276  0.43928  Biso   1.000  Zn
  Zn10     1.0000 0.08670  0.75275  0.26179  Biso   1.000  Zn
  Zn11     1.0000 0.90919  0.75275  0.26179  Biso   1.000  Zn
  Zn12     1.0000 0.90919  0.93026  0.26179  Biso   1.000  Zn
  Zn13     1.0000 0.53057  0.33058  0.66224  Biso   1.000  Zn
  Zn14     1.0000 0.35307  0.33059  0.83973  Biso   1.000  Zn
  Zn15     1.0000 0.53058  0.15308  0.83973  Biso   1.000  Zn
  Zn16     1.0000 0.53058  0.33059  0.83973  Biso   1.000  Zn
  H13      1.0000 0.07258  0.58742  0.60657  Biso   1.000  H
  H14      1.0000 0.27564  0.58747  0.40342  Biso   1.000  H
  H15      1.0000 0.76566  0.89439  0.09653  Biso   1.000  H
  H16      1.0000 0.76566  0.09741  0.09653  Biso   1.000  H
  H17      1.0000 0.76568  0.09743  0.40342  Biso   1.000  H
  H18      1.0000 0.76564  0.89436  0.60657  Biso   1.000  H
  H19      1.0000 0.07260  0.58745  0.09653  Biso   1.000  H
  H20      1.0000 0.27562  0.58745  0.09653  Biso   1.000  H
  H21      1.0000 0.27562  0.89439  0.09653  Biso   1.000  H
  H22      1.0000 0.07260  0.09741  0.09653  Biso   1.000  H
  H23      1.0000 0.76568  0.58747  0.40342  Biso   1.000  H
  H24      1.0000 0.76563  0.58742  0.60657  Biso   1.000  H
  H25      1.0000 0.36719  0.49592  0.49496  Biso   1.000  H
  H26      1.0000 0.16413  0.49588  0.69810  Biso   1.000  H
  H27      1.0000 0.67411  0.98594  0.00499  Biso   1.000  H
  H28      1.0000 0.67410  0.18895  0.00499  Biso   1.000  H
  H29      1.0000 0.67409  0.49588  0.69810  Biso   1.000  H
  H30      1.0000 0.67413  0.49592  0.49496  Biso   1.000  H
  H31      1.0000 0.36717  0.98594  0.00499  Biso   1.000  H
  H32      1.0000 0.16415  0.18895  0.00499  Biso   1.000  H
  H33      1.0000 0.16415  0.49589  0.00499  Biso   1.000  H
  H34      1.0000 0.36716  0.49589  0.00499  Biso   1.000  H
  H35      1.0000 0.67409  0.98592  0.69810  Biso   1.000  H
  H36      1.0000 0.67413  0.18898  0.49496  Biso   1.000  H
  C31      1.0000 0.13728  0.56884  0.57903  Biso   1.000  C
  C32      1.0000 0.24810  0.56888  0.46812  Biso   1.000  C
  C33      1.0000 0.74708  0.95910  0.07795  Biso   1.000  C
  C34      1.0000 0.74707  0.06987  0.07795  Biso   1.000  C
  C35      1.0000 0.74709  0.06989  0.46812  Biso   1.000  C
  C36      1.0000 0.74705  0.95907  0.57903  Biso   1.000  C
  C37      1.0000 0.13731  0.56886  0.07795  Biso   1.000  C
  C38      1.0000 0.24808  0.56886  0.07795  Biso   1.000  C
  C39      1.0000 0.24808  0.95910  0.07795  Biso   1.000  C
  C40      1.0000 0.13731  0.06987  0.07795  Biso   1.000  C
  C41      1.0000 0.74710  0.56888  0.46812  Biso   1.000  C
  C42      1.0000 0.74705  0.56884  0.57903  Biso   1.000  C
  C43      1.0000 0.30248  0.51451  0.52249  Biso   1.000  C
  C44      1.0000 0.19167  0.51446  0.63340  Biso   1.000  C
  C45      1.0000 0.69269  0.01347  0.02358  Biso   1.000  C
  C46      1.0000 0.69269  0.12425  0.02358  Biso   1.000  C
  C47      1.0000 0.69267  0.51446  0.63340  Biso   1.000  C
  C48      1.0000 0.69272  0.51451  0.52249  Biso   1.000  C
  C49      1.0000 0.30246  0.01347  0.02358  Biso   1.000  C
  C50      1.0000 0.19169  0.12425  0.02358  Biso   1.000  C
  C51      1.0000 0.19169  0.51448  0.02358  Biso   1.000  C
  C52      1.0000 0.30246  0.51448  0.02358  Biso   1.000  C
  C53      1.0000 0.69267  0.01345  0.63340  Biso   1.000  C
  C54      1.0000 0.69272  0.12427  0.52249  Biso   1.000  C
  C55      1.0000 0.09499  0.65572  0.44755  Biso   1.000  C
  C56      1.0000 0.15422  0.59649  0.50678  Biso   1.000  C
  C57      1.0000 0.81215  0.93853  0.16477  Biso   1.000  C
  C58      1.0000 0.75291  0.99776  0.10555  Biso   1.000  C
  C59      1.0000 0.81216  0.93855  0.44755  Biso   1.000  C
  C60      1.0000 0.75293  0.99778  0.50678  Biso   1.000  C
  C61      1.0000 0.09497  0.65571  0.16477  Biso   1.000  C
  C62      1.0000 0.15420  0.59647  0.10555  Biso   1.000  C
  C63      1.0000 0.09497  0.93853  0.16477  Biso   1.000  C
  C64      1.0000 0.15420  0.99776  0.10555  Biso   1.000  C
  C65      1.0000 0.81216  0.65572  0.44755  Biso   1.000  C
  C66      1.0000 0.75293  0.59649  0.50678  Biso   1.000  C
  C67      1.0000 0.34478  0.42762  0.65397  Biso   1.000  C
  C68      1.0000 0.28554  0.48685  0.59475  Biso   1.000  C
  C69      1.0000 0.62762  0.14481  0.93675  Biso   1.000  C
  C70      1.0000 0.68686  0.08558  0.99597  Biso   1.000  C
  C71      1.0000 0.62761  0.42762  0.65397  Biso   1.000  C
  C72      1.0000 0.68684  0.48685  0.59475  Biso   1.000  C
  C73      1.0000 0.34479  0.14481  0.93675  Biso   1.000  C
  C74      1.0000 0.28557  0.08558  0.99597  Biso   1.000  C
  C75      1.0000 0.34480  0.42764  0.93675  Biso   1.000  C
  C76      1.0000 0.28557  0.48687  0.99597  Biso   1.000  C
  C77      1.0000 0.62761  0.14480  0.65397  Biso   1.000  C
  C78      1.0000 0.68684  0.08556  0.59475  Biso   1.000  C
  O27      1.0000 0.95357  0.79713  0.30616  Biso   1.000  O
  O28      1.0000 0.48620  0.28622  0.79536  Biso   1.000  O
  O29      1.0000 0.00985  0.67848  0.48718  Biso   1.000  O
  O30      1.0000 0.13462  0.67847  0.36242  Biso   1.000  O
  O31      1.0000 0.83490  0.85339  0.18752  Biso   1.000  O
  O32      1.0000 0.83490  0.97817  0.18752  Biso   1.000  O
  O33      1.0000 0.83491  0.97818  0.36242  Biso   1.000  O
  O34      1.0000 0.83492  0.85341  0.48718  Biso   1.000  O
  O35      1.0000 0.00983  0.67846  0.18752  Biso   1.000  O
  O36      1.0000 0.13461  0.67846  0.18752  Biso   1.000  O
  O37      1.0000 0.13461  0.85339  0.18752  Biso   1.000  O
  O38      1.0000 0.00983  0.97817  0.18752  Biso   1.000  O
  O39      1.0000 0.83491  0.67847  0.36242  Biso   1.000  O
  O40      1.0000 0.83492  0.67848  0.48718  Biso   1.000  O
  O41      1.0000 0.42992  0.40486  0.61434  Biso   1.000  O
  O42      1.0000 0.30515  0.40487  0.73910  Biso   1.000  O
  O43      1.0000 0.60487  0.10517  0.91400  Biso   1.000  O
  O44      1.0000 0.60487  0.22995  0.91400  Biso   1.000  O
  O45      1.0000 0.60486  0.40487  0.73910  Biso   1.000  O
  O46      1.0000 0.60485  0.40486  0.61434  Biso   1.000  O
  O47      1.0000 0.42994  0.10517  0.91400  Biso   1.000  O
  O48      1.0000 0.30516  0.22995  0.91400  Biso   1.000  O
  O49      1.0000 0.30516  0.40488  0.91400  Biso   1.000  O
  O50      1.0000 0.42994  0.40488  0.91400  Biso   1.000  O
  O51      1.0000 0.60486  0.10517  0.73910  Biso   1.000  O
  O52      1.0000 0.60485  0.22994  0.61434  Biso   1.000  O
