data_image0
_cell_length_a       18.101
_cell_length_b       18.101
_cell_length_c       18.101
_cell_angle_alpha    60.0036
_cell_angle_beta     60.0036
_cell_angle_gamma    60.0001

_symmetry_space_group_name_H-M    "P 1"
_symmetry_int_tables_number       1

loop_
  _symmetry_equiv_pos_as_xyz
  'x, y, z'

loop_
  _atom_site_label
  _atom_site_occupancy
  _atom_site_fract_x
  _atom_site_fract_y
  _atom_site_fract_z
  _atom_site_thermal_displace_type
  _atom_site_B_iso_or_equiv
  _atom_site_type_symbol
  C1       1.0000 0.11865  0.29385  0.29380  Biso   1.000  C
  C2       1.0000 0.70615  0.88135  0.70620  Biso   1.000  C
  C3       1.0000 0.88135  0.70615  0.70620  Biso   1.000  C
  C4       1.0000 0.29385  0.11865  0.29380  Biso   1.000  C
  C5       1.0000 0.29392  0.29392  0.11841  Biso   1.000  C
  C6       1.0000 0.29367  0.29367  0.29393  Biso   1.000  C
  C7       1.0000 0.70608  0.70608  0.88159  Biso   1.000  C
  C8       1.0000 0.70633  0.70633  0.70607  Biso   1.000  C
  C9       1.0000 0.15480  0.45200  0.93360  Biso   1.000  C
  C10      1.0000 0.93280  0.45040  0.15620  Biso   1.000  C
  C11      1.0000 0.93080  0.15620  0.44950  Biso   1.000  C
  C12      1.0000 0.54800  0.84520  0.06640  Biso   1.000  C
  C13      1.0000 0.54960  0.06720  0.84380  Biso   1.000  C
  C14      1.0000 0.84380  0.06920  0.55050  Biso   1.000  C
  C15      1.0000 0.84520  0.54800  0.06640  Biso   1.000  C
  C16      1.0000 0.06720  0.54960  0.84380  Biso   1.000  C
  C17      1.0000 0.06920  0.84380  0.55050  Biso   1.000  C
  C18      1.0000 0.45200  0.15480  0.93360  Biso   1.000  C
  C19      1.0000 0.45040  0.93280  0.15620  Biso   1.000  C
  C20      1.0000 0.15620  0.93080  0.44950  Biso   1.000  C
  C21      1.0000 0.12160  0.38280  0.11390  Biso   1.000  C
  C22      1.0000 0.05170  0.44790  0.05410  Biso   1.000  C
  C23      1.0000 0.09080  0.47360  0.96020  Biso   1.000  C
  C24      1.0000 0.96010  0.47210  0.09240  Biso   1.000  C
  C25      1.0000 0.11800  0.38220  0.38200  Biso   1.000  C
  C26      1.0000 0.95710  0.09250  0.47340  Biso   1.000  C
  C27      1.0000 0.61720  0.87840  0.88610  Biso   1.000  C
  C28      1.0000 0.55210  0.94830  0.94590  Biso   1.000  C
  C29      1.0000 0.52640  0.90920  0.03980  Biso   1.000  C
  C30      1.0000 0.52790  0.03990  0.90760  Biso   1.000  C
  C31      1.0000 0.61780  0.88200  0.61800  Biso   1.000  C
  C32      1.0000 0.90750  0.04290  0.52660  Biso   1.000  C
  C33      1.0000 0.87840  0.61720  0.88610  Biso   1.000  C
  C34      1.0000 0.94830  0.55210  0.94590  Biso   1.000  C
  C35      1.0000 0.90920  0.52640  0.03980  Biso   1.000  C
  C36      1.0000 0.03990  0.52790  0.90760  Biso   1.000  C
  C37      1.0000 0.88200  0.61780  0.61800  Biso   1.000  C
  C38      1.0000 0.04290  0.90750  0.52660  Biso   1.000  C
  C39      1.0000 0.38280  0.12160  0.11390  Biso   1.000  C
  C40      1.0000 0.44790  0.05170  0.05410  Biso   1.000  C
  C41      1.0000 0.47360  0.09080  0.96020  Biso   1.000  C
  C42      1.0000 0.47210  0.96010  0.09240  Biso   1.000  C
  C43      1.0000 0.38220  0.11800  0.38200  Biso   1.000  C
  C44      1.0000 0.09250  0.95710  0.47340  Biso   1.000  C
  C45      1.0000 0.38310  0.38310  0.11400  Biso   1.000  C
  C46      1.0000 0.11690  0.11690  0.38110  Biso   1.000  C
  C47      1.0000 0.05150  0.05150  0.45050  Biso   1.000  C
  C48      1.0000 0.61690  0.61690  0.88600  Biso   1.000  C
  C49      1.0000 0.88310  0.88310  0.61890  Biso   1.000  C
  C50      1.0000 0.94850  0.94850  0.54950  Biso   1.000  C
  C51      1.0000 0.19980  0.36640  0.06970  Biso   1.000  C
  C52      1.0000 0.06940  0.36720  0.19730  Biso   1.000  C
  C53      1.0000 0.19960  0.36660  0.36560  Biso   1.000  C
  C54      1.0000 0.06800  0.36680  0.36570  Biso   1.000  C
  C55      1.0000 0.06830  0.19910  0.36730  Biso   1.000  C
  C56      1.0000 0.63360  0.80020  0.93030  Biso   1.000  C
  C57      1.0000 0.63280  0.93060  0.80270  Biso   1.000  C
  C58      1.0000 0.63340  0.80040  0.63440  Biso   1.000  C
  C59      1.0000 0.63320  0.93200  0.63430  Biso   1.000  C
  C60      1.0000 0.80090  0.93170  0.63270  Biso   1.000  C
  C61      1.0000 0.80020  0.63360  0.93030  Biso   1.000  C
  C62      1.0000 0.93060  0.63280  0.80270  Biso   1.000  C
  C63      1.0000 0.80040  0.63340  0.63440  Biso   1.000  C
  C64      1.0000 0.93200  0.63320  0.63430  Biso   1.000  C
  C65      1.0000 0.93170  0.80090  0.63270  Biso   1.000  C
  C66      1.0000 0.36640  0.19980  0.06970  Biso   1.000  C
  C67      1.0000 0.36720  0.06940  0.19730  Biso   1.000  C
  C68      1.0000 0.36660  0.19960  0.36560  Biso   1.000  C
  C69      1.0000 0.36680  0.06800  0.36570  Biso   1.000  C
  C70      1.0000 0.19910  0.06830  0.36730  Biso   1.000  C
  C71      1.0000 0.24870  0.24870  0.25120  Biso   1.000  C
  C72      1.0000 0.36630  0.36630  0.06820  Biso   1.000  C
  C73      1.0000 0.36620  0.36620  0.19910  Biso   1.000  C
  C74      1.0000 0.75130  0.75130  0.74880  Biso   1.000  C
  C75      1.0000 0.63370  0.63370  0.93180  Biso   1.000  C
  C76      1.0000 0.63380  0.63380  0.80090  Biso   1.000  C
  O1       1.0000 0.54799  0.16167  0.64772  Biso   1.000  O
  O2       1.0000 0.54799  0.34291  0.64772  Biso   1.000  O
  O3       1.0000 0.36676  0.34291  0.64772  Biso   1.000  O
  O4       1.0000 0.54798  0.34290  0.46652  Biso   1.000  O
  O5       1.0000 0.99149  0.74088  0.04582  Biso   1.000  O
  O6       1.0000 0.99149  0.92211  0.04582  Biso   1.000  O
  O7       1.0000 0.17273  0.74088  0.04582  Biso   1.000  O
  O8       1.0000 0.99150  0.74089  0.22702  Biso   1.000  O
  O9       1.0000 0.39837  0.97851  0.81410  Biso   1.000  O
  O10      1.0000 0.71439  0.50930  0.49811  Biso   1.000  O
  O11      1.0000 0.18359  0.19329  0.81410  Biso   1.000  O
  O12      1.0000 0.71438  0.50929  0.28337  Biso   1.000  O
  O13      1.0000 0.18357  0.50930  0.49811  Biso   1.000  O
  O14      1.0000 0.71440  0.19329  0.81410  Biso   1.000  O
  O15      1.0000 0.39834  0.50929  0.28337  Biso   1.000  O
  O16      1.0000 0.71440  0.97851  0.81410  Biso   1.000  O
  O17      1.0000 0.71437  0.19326  0.28337  Biso   1.000  O
  O18      1.0000 0.39837  0.50932  0.81410  Biso   1.000  O
  O19      1.0000 0.71439  0.97849  0.49811  Biso   1.000  O
  O20      1.0000 0.18359  0.50932  0.81410  Biso   1.000  O
  O21      1.0000 0.14112  0.57446  0.87944  Biso   1.000  O
  O22      1.0000 0.82510  0.10530  0.19542  Biso   1.000  O
  O23      1.0000 0.35590  0.57446  0.87944  Biso   1.000  O
  O24      1.0000 0.82511  0.89053  0.41017  Biso   1.000  O
  O25      1.0000 0.35591  0.57448  0.19542  Biso   1.000  O
  O26      1.0000 0.82508  0.10528  0.87944  Biso   1.000  O
  O27      1.0000 0.14114  0.57449  0.41017  Biso   1.000  O
  O28      1.0000 0.82508  0.89050  0.87944  Biso   1.000  O
  O29      1.0000 0.82511  0.57449  0.41017  Biso   1.000  O
  O30      1.0000 0.14112  0.10528  0.87944  Biso   1.000  O
  O31      1.0000 0.82510  0.57448  0.19542  Biso   1.000  O
  O32      1.0000 0.35590  0.89050  0.87944  Biso   1.000  O
  O33      1.0000 0.34477  0.00183  0.82923  Biso   1.000  O
  O34      1.0000 0.72952  0.52444  0.44453  Biso   1.000  O
  O35      1.0000 0.20691  0.13969  0.82923  Biso   1.000  O
  O36      1.0000 0.72951  0.52443  0.30668  Biso   1.000  O
  O37      1.0000 0.20689  0.52444  0.44453  Biso   1.000  O
  O38      1.0000 0.72954  0.13969  0.82923  Biso   1.000  O
  O39      1.0000 0.34475  0.52443  0.30668  Biso   1.000  O
  O40      1.0000 0.72954  0.00183  0.82923  Biso   1.000  O
  O41      1.0000 0.72951  0.13967  0.30668  Biso   1.000  O
  O42      1.0000 0.34478  0.52446  0.82923  Biso   1.000  O
  O43      1.0000 0.72952  0.00181  0.44453  Biso   1.000  O
  O44      1.0000 0.20691  0.52446  0.82923  Biso   1.000  O
  O45      1.0000 0.19471  0.55933  0.86431  Biso   1.000  O
  O46      1.0000 0.80996  0.08198  0.24901  Biso   1.000  O
  O47      1.0000 0.33258  0.55933  0.86431  Biso   1.000  O
  O48      1.0000 0.80997  0.94412  0.38685  Biso   1.000  O
  O49      1.0000 0.33260  0.55935  0.24901  Biso   1.000  O
  O50      1.0000 0.80994  0.08196  0.86431  Biso   1.000  O
  O51      1.0000 0.19474  0.55935  0.38685  Biso   1.000  O
  O52      1.0000 0.80994  0.94409  0.86431  Biso   1.000  O
  O53      1.0000 0.80997  0.55935  0.38685  Biso   1.000  O
  O54      1.0000 0.19471  0.08196  0.86431  Biso   1.000  O
  O55      1.0000 0.80996  0.55935  0.24901  Biso   1.000  O
  O56      1.0000 0.33258  0.94409  0.86431  Biso   1.000  O
  O57      1.0000 0.36420  0.15912  0.74088  Biso   1.000  O
  O58      1.0000 0.30233  0.09725  0.80275  Biso   1.000  O
  O59      1.0000 0.64115  0.43607  0.46396  Biso   1.000  O
  O60      1.0000 0.70303  0.49795  0.40209  Biso   1.000  O
  O61      1.0000 0.36419  0.43607  0.46396  Biso   1.000  O
  O62      1.0000 0.30231  0.49795  0.40209  Biso   1.000  O
  O63      1.0000 0.64117  0.15912  0.74088  Biso   1.000  O
  O64      1.0000 0.70305  0.09725  0.80275  Biso   1.000  O
  O65      1.0000 0.64115  0.15911  0.46396  Biso   1.000  O
  O66      1.0000 0.70303  0.09723  0.40209  Biso   1.000  O
  O67      1.0000 0.36420  0.43609  0.74088  Biso   1.000  O
  O68      1.0000 0.30233  0.49797  0.80275  Biso   1.000  O
  O69      1.0000 0.17528  0.64770  0.95266  Biso   1.000  O
  O70      1.0000 0.23715  0.58582  0.89079  Biso   1.000  O
  O71      1.0000 0.89833  0.92468  0.22958  Biso   1.000  O
  O72      1.0000 0.83646  0.98656  0.29145  Biso   1.000  O
  O73      1.0000 0.17530  0.64771  0.22958  Biso   1.000  O
  O74      1.0000 0.23718  0.58584  0.29145  Biso   1.000  O
  O75      1.0000 0.89831  0.92466  0.95266  Biso   1.000  O
  O76      1.0000 0.83643  0.98654  0.89079  Biso   1.000  O
  O77      1.0000 0.89833  0.64771  0.22958  Biso   1.000  O
  O78      1.0000 0.83645  0.58584  0.29145  Biso   1.000  O
  O79      1.0000 0.17528  0.92466  0.95266  Biso   1.000  O
  O80      1.0000 0.23715  0.98654  0.89079  Biso   1.000  O
  O81      1.0000 0.50268  0.29760  0.60242  Biso   1.000  O
  O82      1.0000 0.03680  0.78619  0.09112  Biso   1.000  O
  O83      1.0000 0.44786  0.11432  0.72145  Biso   1.000  O
  O84      1.0000 0.62173  0.41664  0.54761  Biso   1.000  O
  O85      1.0000 0.31940  0.24278  0.72145  Biso   1.000  O
  O86      1.0000 0.62172  0.41664  0.41917  Biso   1.000  O
  O87      1.0000 0.31940  0.41664  0.54761  Biso   1.000  O
  O88      1.0000 0.62174  0.24278  0.72145  Biso   1.000  O
  O89      1.0000 0.44785  0.41664  0.41917  Biso   1.000  O
  O90      1.0000 0.62174  0.11432  0.72145  Biso   1.000  O
  O91      1.0000 0.62172  0.24277  0.41917  Biso   1.000  O
  O92      1.0000 0.44787  0.41665  0.72145  Biso   1.000  O
  O93      1.0000 0.62173  0.11432  0.54761  Biso   1.000  O
  O94      1.0000 0.31941  0.41665  0.72145  Biso   1.000  O
  O95      1.0000 0.09162  0.66713  0.97209  Biso   1.000  O
  O96      1.0000 0.91776  0.96947  0.14593  Biso   1.000  O
  O97      1.0000 0.22008  0.66713  0.97209  Biso   1.000  O
  O98      1.0000 0.91776  0.84102  0.27437  Biso   1.000  O
  O99      1.0000 0.22009  0.66714  0.14593  Biso   1.000  O
  O100     1.0000 0.91775  0.96946  0.97209  Biso   1.000  O
  O101     1.0000 0.09164  0.66715  0.27437  Biso   1.000  O
  O102     1.0000 0.91775  0.84100  0.97209  Biso   1.000  O
  O103     1.0000 0.91776  0.66715  0.27437  Biso   1.000  O
  O104     1.0000 0.09162  0.96946  0.97209  Biso   1.000  O
  O105     1.0000 0.91776  0.66714  0.14593  Biso   1.000  O
  O106     1.0000 0.22008  0.84100  0.97209  Biso   1.000  O
