data_image0
_cell_length_a       18.3471
_cell_length_b       18.3471
_cell_length_c       18.3471
_cell_angle_alpha    60
_cell_angle_beta     60
_cell_angle_gamma    60

_symmetry_space_group_name_H-M    "P 1"
_symmetry_int_tables_number       1

loop_
  _symmetry_equiv_pos_as_xyz
  'x, y, z'

loop_
  _atom_site_label
  _atom_site_occupancy
  _atom_site_fract_x
  _atom_site_fract_y
  _atom_site_fract_z
  _atom_site_thermal_displace_type
  _atom_site_B_iso_or_equiv
  _atom_site_type_symbol
  Cu1      1.0000 0.00000  0.42920  0.57080  Biso   1.000  Cu
  Cu2      1.0000 0.42920  0.00000  0.00000  Biso   1.000  Cu
  Cu3      1.0000 0.57080  0.00000  0.00000  Biso   1.000  Cu
  Cu4      1.0000 0.00000  0.57080  0.42920  Biso   1.000  Cu
  Cu5      1.0000 0.00000  0.57080  0.00000  Biso   1.000  Cu
  Cu6      1.0000 0.42920  0.00000  0.57080  Biso   1.000  Cu
  Cu7      1.0000 0.57080  0.00000  0.42920  Biso   1.000  Cu
  Cu8      1.0000 0.00000  0.42920  0.00000  Biso   1.000  Cu
  Cu9      1.0000 0.00000  0.00000  0.42920  Biso   1.000  Cu
  Cu10     1.0000 0.42920  0.57080  0.00000  Biso   1.000  Cu
  Cu11     1.0000 0.57080  0.42920  0.00000  Biso   1.000  Cu
  Cu12     1.0000 0.00000  0.00000  0.57080  Biso   1.000  Cu
  H1       1.0000 0.96410  0.27250  0.49090  Biso   1.000  H
  H2       1.0000 0.27250  0.96410  0.27250  Biso   1.000  H
  H3       1.0000 0.49090  0.27250  0.96410  Biso   1.000  H
  H4       1.0000 0.27250  0.49090  0.27250  Biso   1.000  H
  H5       1.0000 0.96410  0.49090  0.27250  Biso   1.000  H
  H6       1.0000 0.27250  0.27250  0.49090  Biso   1.000  H
  H7       1.0000 0.49090  0.96410  0.27250  Biso   1.000  H
  H8       1.0000 0.27250  0.27250  0.96410  Biso   1.000  H
  H9       1.0000 0.96410  0.27250  0.27250  Biso   1.000  H
  H10      1.0000 0.27250  0.49090  0.96410  Biso   1.000  H
  H11      1.0000 0.49090  0.27250  0.27250  Biso   1.000  H
  H12      1.0000 0.27250  0.96410  0.49090  Biso   1.000  H
  H13      1.0000 0.72750  0.03590  0.50910  Biso   1.000  H
  H14      1.0000 0.03590  0.72750  0.72750  Biso   1.000  H
  H15      1.0000 0.72750  0.50910  0.03590  Biso   1.000  H
  H16      1.0000 0.50910  0.72750  0.72750  Biso   1.000  H
  H17      1.0000 0.50910  0.03590  0.72750  Biso   1.000  H
  H18      1.0000 0.72750  0.72750  0.50910  Biso   1.000  H
  H19      1.0000 0.03590  0.50910  0.72750  Biso   1.000  H
  H20      1.0000 0.72750  0.72750  0.03590  Biso   1.000  H
  H21      1.0000 0.72750  0.03590  0.72750  Biso   1.000  H
  H22      1.0000 0.50910  0.72750  0.03590  Biso   1.000  H
  H23      1.0000 0.72750  0.50910  0.72750  Biso   1.000  H
  H24      1.0000 0.03590  0.72750  0.50910  Biso   1.000  H
  C1       1.0000 0.96370  0.30250  0.43130  Biso   1.000  C
  C2       1.0000 0.30250  0.96370  0.30250  Biso   1.000  C
  C3       1.0000 0.43130  0.30250  0.96370  Biso   1.000  C
  C4       1.0000 0.30250  0.43130  0.30250  Biso   1.000  C
  C5       1.0000 0.96370  0.43130  0.30250  Biso   1.000  C
  C6       1.0000 0.30250  0.30250  0.43130  Biso   1.000  C
  C7       1.0000 0.43130  0.96370  0.30250  Biso   1.000  C
  C8       1.0000 0.30250  0.30250  0.96370  Biso   1.000  C
  C9       1.0000 0.96370  0.30250  0.30250  Biso   1.000  C
  C10      1.0000 0.30250  0.43130  0.96370  Biso   1.000  C
  C11      1.0000 0.43130  0.30250  0.30250  Biso   1.000  C
  C12      1.0000 0.30250  0.96370  0.43130  Biso   1.000  C
  C13      1.0000 0.69750  0.03630  0.56870  Biso   1.000  C
  C14      1.0000 0.03630  0.69750  0.69750  Biso   1.000  C
  C15      1.0000 0.69750  0.56870  0.03630  Biso   1.000  C
  C16      1.0000 0.56870  0.69750  0.69750  Biso   1.000  C
  C17      1.0000 0.56870  0.03630  0.69750  Biso   1.000  C
  C18      1.0000 0.69750  0.69750  0.56870  Biso   1.000  C
  C19      1.0000 0.03630  0.56870  0.69750  Biso   1.000  C
  C20      1.0000 0.69750  0.69750  0.03630  Biso   1.000  C
  C21      1.0000 0.69750  0.03630  0.69750  Biso   1.000  C
  C22      1.0000 0.56870  0.69750  0.03630  Biso   1.000  C
  C23      1.0000 0.69750  0.56870  0.69750  Biso   1.000  C
  C24      1.0000 0.03630  0.69750  0.56870  Biso   1.000  C
  C25      1.0000 0.96250  0.38910  0.38910  Biso   1.000  C
  C26      1.0000 0.97740  0.43060  0.43060  Biso   1.000  C
  C27      1.0000 0.38910  0.96250  0.25930  Biso   1.000  C
  C28      1.0000 0.43060  0.97740  0.16140  Biso   1.000  C
  C29      1.0000 0.38910  0.25930  0.96250  Biso   1.000  C
  C30      1.0000 0.43060  0.16140  0.97740  Biso   1.000  C
  C31      1.0000 0.25930  0.38910  0.38910  Biso   1.000  C
  C32      1.0000 0.16140  0.43060  0.43060  Biso   1.000  C
  C33      1.0000 0.96250  0.38910  0.25930  Biso   1.000  C
  C34      1.0000 0.97740  0.43060  0.16140  Biso   1.000  C
  C35      1.0000 0.38910  0.25930  0.38910  Biso   1.000  C
  C36      1.0000 0.43060  0.16140  0.43060  Biso   1.000  C
  C37      1.0000 0.38910  0.96250  0.38910  Biso   1.000  C
  C38      1.0000 0.43060  0.97740  0.43060  Biso   1.000  C
  C39      1.0000 0.25930  0.38910  0.96250  Biso   1.000  C
  C40      1.0000 0.16140  0.43060  0.97740  Biso   1.000  C
  C41      1.0000 0.96250  0.25930  0.38910  Biso   1.000  C
  C42      1.0000 0.97740  0.16140  0.43060  Biso   1.000  C
  C43      1.0000 0.38910  0.38910  0.96250  Biso   1.000  C
  C44      1.0000 0.43060  0.43060  0.97740  Biso   1.000  C
  C45      1.0000 0.38910  0.38910  0.25930  Biso   1.000  C
  C46      1.0000 0.43060  0.43060  0.16140  Biso   1.000  C
  C47      1.0000 0.25930  0.96250  0.38910  Biso   1.000  C
  C48      1.0000 0.16140  0.97740  0.43060  Biso   1.000  C
  C49      1.0000 0.61090  0.03750  0.61090  Biso   1.000  C
  C50      1.0000 0.56940  0.02260  0.56940  Biso   1.000  C
  C51      1.0000 0.03750  0.61090  0.74070  Biso   1.000  C
  C52      1.0000 0.02260  0.56940  0.83860  Biso   1.000  C
  C53      1.0000 0.74070  0.61090  0.03750  Biso   1.000  C
  C54      1.0000 0.83860  0.56940  0.02260  Biso   1.000  C
  C55      1.0000 0.61090  0.74070  0.61090  Biso   1.000  C
  C56      1.0000 0.56940  0.83860  0.56940  Biso   1.000  C
  C57      1.0000 0.61090  0.03750  0.74070  Biso   1.000  C
  C58      1.0000 0.56940  0.02260  0.83860  Biso   1.000  C
  C59      1.0000 0.74070  0.61090  0.61090  Biso   1.000  C
  C60      1.0000 0.83860  0.56940  0.56940  Biso   1.000  C
  C61      1.0000 0.03750  0.61090  0.61090  Biso   1.000  C
  C62      1.0000 0.02260  0.56940  0.56940  Biso   1.000  C
  C63      1.0000 0.61090  0.74070  0.03750  Biso   1.000  C
  C64      1.0000 0.56940  0.83860  0.02260  Biso   1.000  C
  C65      1.0000 0.74070  0.03750  0.61090  Biso   1.000  C
  C66      1.0000 0.83860  0.02260  0.56940  Biso   1.000  C
  C67      1.0000 0.61090  0.61090  0.03750  Biso   1.000  C
  C68      1.0000 0.56940  0.56940  0.02260  Biso   1.000  C
  C69      1.0000 0.61090  0.61090  0.74070  Biso   1.000  C
  C70      1.0000 0.56940  0.56940  0.83860  Biso   1.000  C
  C71      1.0000 0.03750  0.74070  0.61090  Biso   1.000  C
  C72      1.0000 0.02260  0.83860  0.56940  Biso   1.000  C
  O1       1.0000 0.97960  0.38720  0.50940  Biso   1.000  O
  O2       1.0000 0.38720  0.97960  0.12380  Biso   1.000  O
  O3       1.0000 0.50940  0.12380  0.97960  Biso   1.000  O
  O4       1.0000 0.12380  0.50940  0.38720  Biso   1.000  O
  O5       1.0000 0.97960  0.50940  0.12380  Biso   1.000  O
  O6       1.0000 0.38720  0.12380  0.50940  Biso   1.000  O
  O7       1.0000 0.50940  0.97960  0.38720  Biso   1.000  O
  O8       1.0000 0.12380  0.38720  0.97960  Biso   1.000  O
  O9       1.0000 0.97960  0.12380  0.38720  Biso   1.000  O
  O10      1.0000 0.38720  0.50940  0.97960  Biso   1.000  O
  O11      1.0000 0.50940  0.38720  0.12380  Biso   1.000  O
  O12      1.0000 0.12380  0.97960  0.50940  Biso   1.000  O
  O13      1.0000 0.61280  0.02040  0.49060  Biso   1.000  O
  O14      1.0000 0.02040  0.61280  0.87620  Biso   1.000  O
  O15      1.0000 0.87620  0.49060  0.02040  Biso   1.000  O
  O16      1.0000 0.49060  0.87620  0.61280  Biso   1.000  O
  O17      1.0000 0.49060  0.02040  0.87620  Biso   1.000  O
  O18      1.0000 0.87620  0.61280  0.49060  Biso   1.000  O
  O19      1.0000 0.02040  0.49060  0.61280  Biso   1.000  O
  O20      1.0000 0.61280  0.87620  0.02040  Biso   1.000  O
  O21      1.0000 0.87620  0.02040  0.61280  Biso   1.000  O
  O22      1.0000 0.49060  0.61280  0.02040  Biso   1.000  O
  O23      1.0000 0.61280  0.49060  0.87620  Biso   1.000  O
  O24      1.0000 0.02040  0.87620  0.49060  Biso   1.000  O
  O25      1.0000 0.02040  0.61280  0.49060  Biso   1.000  O
  O26      1.0000 0.61280  0.02040  0.87620  Biso   1.000  O
  O27      1.0000 0.49060  0.87620  0.02040  Biso   1.000  O
  O28      1.0000 0.87620  0.49060  0.61280  Biso   1.000  O
  O29      1.0000 0.02040  0.49060  0.87620  Biso   1.000  O
  O30      1.0000 0.61280  0.87620  0.49060  Biso   1.000  O
  O31      1.0000 0.49060  0.02040  0.61280  Biso   1.000  O
  O32      1.0000 0.87620  0.61280  0.02040  Biso   1.000  O
  O33      1.0000 0.02040  0.87620  0.61280  Biso   1.000  O
  O34      1.0000 0.61280  0.49060  0.02040  Biso   1.000  O
  O35      1.0000 0.49060  0.61280  0.87620  Biso   1.000  O
  O36      1.0000 0.87620  0.02040  0.49060  Biso   1.000  O
  O37      1.0000 0.38720  0.97960  0.50940  Biso   1.000  O
  O38      1.0000 0.97960  0.38720  0.12380  Biso   1.000  O
  O39      1.0000 0.12380  0.50940  0.97960  Biso   1.000  O
  O40      1.0000 0.50940  0.12380  0.38720  Biso   1.000  O
  O41      1.0000 0.50940  0.97960  0.12380  Biso   1.000  O
  O42      1.0000 0.12380  0.38720  0.50940  Biso   1.000  O
  O43      1.0000 0.97960  0.50940  0.38720  Biso   1.000  O
  O44      1.0000 0.38720  0.12380  0.97960  Biso   1.000  O
  O45      1.0000 0.12380  0.97960  0.38720  Biso   1.000  O
  O46      1.0000 0.50940  0.38720  0.97960  Biso   1.000  O
  O47      1.0000 0.38720  0.50940  0.12380  Biso   1.000  O
  O48      1.0000 0.97960  0.12380  0.50940  Biso   1.000  O
  Zn1      1.0000 0.52802  0.57027  0.52760  Biso   1.000  Zn
  Zn2      1.0000 0.52802  0.57027  0.33447  Biso   1.000  Zn
  Zn3      1.0000 0.52802  0.37715  0.52760  Biso   1.000  Zn
  Zn4      1.0000 0.33490  0.57027  0.52760  Biso   1.000  Zn
  Zn5      1.0000 0.93147  0.97372  0.10017  Biso   1.000  Zn
  Zn6      1.0000 0.93147  0.97372  0.93105  Biso   1.000  Zn
  Zn7      1.0000 0.10060  0.97372  0.93105  Biso   1.000  Zn
  Zn8      1.0000 0.93147  0.14285  0.93105  Biso   1.000  Zn
  H25      1.0000 0.77103  0.81328  0.28029  Biso   1.000  H
  H26      1.0000 0.77103  0.81328  0.07181  Biso   1.000  H
  H27      1.0000 0.28072  0.11448  0.77060  Biso   1.000  H
  H28      1.0000 0.07223  0.32297  0.77060  Biso   1.000  H
  H29      1.0000 0.77103  0.32297  0.07181  Biso   1.000  H
  H30      1.0000 0.77103  0.11448  0.28029  Biso   1.000  H
  H31      1.0000 0.28072  0.81328  0.77060  Biso   1.000  H
  H32      1.0000 0.07223  0.81328  0.77060  Biso   1.000  H
  H33      1.0000 0.77103  0.11448  0.77060  Biso   1.000  H
  H34      1.0000 0.77103  0.32297  0.77060  Biso   1.000  H
  H35      1.0000 0.28072  0.81328  0.07181  Biso   1.000  H
  H36      1.0000 0.07223  0.81328  0.28029  Biso   1.000  H
  C73      1.0000 0.70534  0.74759  0.30362  Biso   1.000  C
  C74      1.0000 0.75473  0.79698  0.25209  Biso   1.000  C
  C75      1.0000 0.70534  0.74759  0.17986  Biso   1.000  C
  C76      1.0000 0.75473  0.79698  0.13262  Biso   1.000  C
  C77      1.0000 0.30404  0.22253  0.70492  Biso   1.000  C
  C78      1.0000 0.25251  0.17529  0.75430  Biso   1.000  C
  C79      1.0000 0.18028  0.34629  0.70492  Biso   1.000  C
  C80      1.0000 0.13304  0.29476  0.75430  Biso   1.000  C
  C81      1.0000 0.70534  0.34629  0.17986  Biso   1.000  C
  C82      1.0000 0.75473  0.29476  0.13262  Biso   1.000  C
  C83      1.0000 0.70534  0.22253  0.30362  Biso   1.000  C
  C84      1.0000 0.75473  0.17529  0.25209  Biso   1.000  C
  C85      1.0000 0.30404  0.74759  0.70492  Biso   1.000  C
  C86      1.0000 0.25251  0.79698  0.75430  Biso   1.000  C
  C87      1.0000 0.18028  0.74759  0.70492  Biso   1.000  C
  C88      1.0000 0.13304  0.79698  0.75430  Biso   1.000  C
  C89      1.0000 0.70534  0.22253  0.70492  Biso   1.000  C
  C90      1.0000 0.75473  0.17529  0.75430  Biso   1.000  C
  C91      1.0000 0.70534  0.34629  0.70492  Biso   1.000  C
  C92      1.0000 0.75473  0.29476  0.75430  Biso   1.000  C
  C93      1.0000 0.30404  0.74759  0.17986  Biso   1.000  C
  C94      1.0000 0.25251  0.79698  0.13262  Biso   1.000  C
  C95      1.0000 0.18028  0.74759  0.30362  Biso   1.000  C
  C96      1.0000 0.13304  0.79698  0.25209  Biso   1.000  C
  C97      1.0000 0.61896  0.66121  0.32812  Biso   1.000  C
  C98      1.0000 0.68143  0.72367  0.26565  Biso   1.000  C
  C99      1.0000 0.83554  0.87779  0.11153  Biso   1.000  C
  C100     1.0000 0.78625  0.82850  0.16083  Biso   1.000  C
  C101     1.0000 0.32854  0.37079  0.61854  Biso   1.000  C
  C102     1.0000 0.26607  0.30832  0.68100  Biso   1.000  C
  C103     1.0000 0.11196  0.15421  0.83512  Biso   1.000  C
  C104     1.0000 0.16125  0.20350  0.78583  Biso   1.000  C
  C105     1.0000 0.61896  0.37079  0.32812  Biso   1.000  C
  C106     1.0000 0.68143  0.30832  0.26565  Biso   1.000  C
  C107     1.0000 0.83554  0.15421  0.11153  Biso   1.000  C
  C108     1.0000 0.78625  0.20350  0.16083  Biso   1.000  C
  C109     1.0000 0.32854  0.66121  0.61854  Biso   1.000  C
  C110     1.0000 0.26607  0.72367  0.68100  Biso   1.000  C
  C111     1.0000 0.11196  0.87779  0.83512  Biso   1.000  C
  C112     1.0000 0.16125  0.82850  0.78583  Biso   1.000  C
  C113     1.0000 0.61896  0.37079  0.61854  Biso   1.000  C
  C114     1.0000 0.68143  0.30832  0.68100  Biso   1.000  C
  C115     1.0000 0.83554  0.15421  0.83512  Biso   1.000  C
  C116     1.0000 0.78625  0.20350  0.78583  Biso   1.000  C
  C117     1.0000 0.32854  0.66121  0.32812  Biso   1.000  C
  C118     1.0000 0.26607  0.72367  0.26565  Biso   1.000  C
  C119     1.0000 0.11196  0.87779  0.11153  Biso   1.000  C
  C120     1.0000 0.16125  0.82850  0.16083  Biso   1.000  C
  O49      1.0000 0.97375  0.01600  0.97333  Biso   1.000  O
  O50      1.0000 0.48573  0.52798  0.48531  Biso   1.000  O
  O51      1.0000 0.59749  0.63973  0.40894  Biso   1.000  O
  O52      1.0000 0.85985  0.90210  0.14618  Biso   1.000  O
  O53      1.0000 0.59749  0.63973  0.29025  Biso   1.000  O
  O54      1.0000 0.85985  0.90210  0.02828  Biso   1.000  O
  O55      1.0000 0.40936  0.33292  0.59706  Biso   1.000  O
  O56      1.0000 0.14661  0.07095  0.85942  Biso   1.000  O
  O57      1.0000 0.29067  0.45161  0.59706  Biso   1.000  O
  O58      1.0000 0.02870  0.18886  0.85942  Biso   1.000  O
  O59      1.0000 0.59749  0.45161  0.29025  Biso   1.000  O
  O60      1.0000 0.85985  0.18886  0.02828  Biso   1.000  O
  O61      1.0000 0.59749  0.33292  0.40894  Biso   1.000  O
  O62      1.0000 0.85985  0.07095  0.14618  Biso   1.000  O
  O63      1.0000 0.40936  0.63973  0.59706  Biso   1.000  O
  O64      1.0000 0.14661  0.90210  0.85942  Biso   1.000  O
  O65      1.0000 0.29067  0.63973  0.59706  Biso   1.000  O
  O66      1.0000 0.02870  0.90210  0.85942  Biso   1.000  O
  O67      1.0000 0.59749  0.33292  0.59706  Biso   1.000  O
  O68      1.0000 0.85985  0.07095  0.85942  Biso   1.000  O
  O69      1.0000 0.59749  0.45161  0.59706  Biso   1.000  O
  O70      1.0000 0.85985  0.18886  0.85942  Biso   1.000  O
  O71      1.0000 0.40936  0.63973  0.29025  Biso   1.000  O
  O72      1.0000 0.14661  0.90210  0.02828  Biso   1.000  O
  O73      1.0000 0.29067  0.63973  0.40894  Biso   1.000  O
  O74      1.0000 0.02870  0.90210  0.14618  Biso   1.000  O
