data_image0
_cell_length_a       18.1065
_cell_length_b       18.1065
_cell_length_c       18.1065
_cell_angle_alpha    60
_cell_angle_beta     60
_cell_angle_gamma    60

_symmetry_space_group_name_H-M    "P 1"
_symmetry_int_tables_number       1

loop_
  _symmetry_equiv_pos_as_xyz
  'x, y, z'

loop_
  _atom_site_label
  _atom_site_occupancy
  _atom_site_fract_x
  _atom_site_fract_y
  _atom_site_fract_z
  _atom_site_thermal_displace_type
  _atom_site_B_iso_or_equiv
  _atom_site_type_symbol
  C1       1.0000 0.79354  0.61938  0.79354  Biso   1.000  C
  C2       1.0000 0.61938  0.79354  0.79354  Biso   1.000  C
  C3       1.0000 0.20646  0.20646  0.38062  Biso   1.000  C
  C4       1.0000 0.79354  0.79354  0.79354  Biso   1.000  C
  C5       1.0000 0.20646  0.38062  0.20646  Biso   1.000  C
  C6       1.0000 0.20646  0.20646  0.20646  Biso   1.000  C
  C7       1.0000 0.38062  0.20646  0.20646  Biso   1.000  C
  C8       1.0000 0.79354  0.79354  0.61938  Biso   1.000  C
  C9       1.0000 0.41290  0.53690  0.02510  Biso   1.000  C
  C10      1.0000 0.97490  0.46310  0.97490  Biso   1.000  C
  C11      1.0000 0.53690  0.02510  0.02510  Biso   1.000  C
  C12      1.0000 0.94610  0.55390  0.55390  Biso   1.000  C
  C13      1.0000 0.41290  0.02510  0.53690  Biso   1.000  C
  C14      1.0000 0.55390  0.55390  0.94610  Biso   1.000  C
  C15      1.0000 0.38730  0.38730  0.11270  Biso   1.000  C
  C16      1.0000 0.46310  0.58710  0.97490  Biso   1.000  C
  C17      1.0000 0.58710  0.46310  0.97490  Biso   1.000  C
  C18      1.0000 0.94610  0.94610  0.55390  Biso   1.000  C
  C19      1.0000 0.94610  0.55390  0.94610  Biso   1.000  C
  C20      1.0000 0.02510  0.53690  0.41290  Biso   1.000  C
  C21      1.0000 0.02510  0.41290  0.02510  Biso   1.000  C
  C22      1.0000 0.88730  0.61270  0.88730  Biso   1.000  C
  C23      1.0000 0.61270  0.88730  0.61270  Biso   1.000  C
  C24      1.0000 0.38730  0.11270  0.11270  Biso   1.000  C
  C25      1.0000 0.61270  0.88730  0.88730  Biso   1.000  C
  C26      1.0000 0.61270  0.61270  0.88730  Biso   1.000  C
  C27      1.0000 0.53690  0.41290  0.02510  Biso   1.000  C
  C28      1.0000 0.58710  0.97490  0.97490  Biso   1.000  C
  C29      1.0000 0.11270  0.38730  0.11270  Biso   1.000  C
  C30      1.0000 0.46310  0.97490  0.97490  Biso   1.000  C
  C31      1.0000 0.02510  0.41290  0.53690  Biso   1.000  C
  C32      1.0000 0.88730  0.88730  0.61270  Biso   1.000  C
  C33      1.0000 0.46310  0.97490  0.58710  Biso   1.000  C
  C34      1.0000 0.38730  0.11270  0.38730  Biso   1.000  C
  C35      1.0000 0.05390  0.44610  0.05390  Biso   1.000  C
  C36      1.0000 0.41290  0.02510  0.02510  Biso   1.000  C
  C37      1.0000 0.97490  0.97490  0.46310  Biso   1.000  C
  C38      1.0000 0.88730  0.61270  0.61270  Biso   1.000  C
  C39      1.0000 0.53690  0.02510  0.41290  Biso   1.000  C
  C40      1.0000 0.97490  0.97490  0.58710  Biso   1.000  C
  C41      1.0000 0.44610  0.05390  0.44610  Biso   1.000  C
  C42      1.0000 0.02510  0.53690  0.02510  Biso   1.000  C
  C43      1.0000 0.02510  0.02510  0.41290  Biso   1.000  C
  C44      1.0000 0.11270  0.38730  0.38730  Biso   1.000  C
  C45      1.0000 0.02510  0.02510  0.53690  Biso   1.000  C
  C46      1.0000 0.97490  0.46310  0.58710  Biso   1.000  C
  C47      1.0000 0.97490  0.58710  0.46310  Biso   1.000  C
  C48      1.0000 0.55390  0.94610  0.94610  Biso   1.000  C
  C49      1.0000 0.97490  0.58710  0.97490  Biso   1.000  C
  C50      1.0000 0.44610  0.05390  0.05390  Biso   1.000  C
  C51      1.0000 0.05390  0.44610  0.44610  Biso   1.000  C
  C52      1.0000 0.11270  0.11270  0.38730  Biso   1.000  C
  C53      1.0000 0.05390  0.05390  0.44610  Biso   1.000  C
  C54      1.0000 0.55390  0.94610  0.55390  Biso   1.000  C
  C55      1.0000 0.58710  0.97490  0.46310  Biso   1.000  C
  C56      1.0000 0.44610  0.44610  0.05390  Biso   1.000  C
  C57      1.0000 0.13360  0.42978  0.13360  Biso   1.000  C
  C58      1.0000 0.13360  0.42978  0.30302  Biso   1.000  C
  C59      1.0000 0.86640  0.57022  0.86640  Biso   1.000  C
  C60      1.0000 0.30302  0.13360  0.42978  Biso   1.000  C
  C61      1.0000 0.13360  0.13360  0.42978  Biso   1.000  C
  C62      1.0000 0.86640  0.57022  0.69698  Biso   1.000  C
  C63      1.0000 0.69698  0.86640  0.57022  Biso   1.000  C
  C64      1.0000 0.86640  0.86640  0.57022  Biso   1.000  C
  C65      1.0000 0.13360  0.30302  0.13360  Biso   1.000  C
  C66      1.0000 0.42978  0.30302  0.13360  Biso   1.000  C
  C67      1.0000 0.86640  0.69698  0.86640  Biso   1.000  C
  C68      1.0000 0.13360  0.13360  0.30302  Biso   1.000  C
  C69      1.0000 0.69698  0.86640  0.86640  Biso   1.000  C
  C70      1.0000 0.57022  0.69698  0.86640  Biso   1.000  C
  C71      1.0000 0.57022  0.86640  0.86640  Biso   1.000  C
  C72      1.0000 0.13360  0.30302  0.42978  Biso   1.000  C
  C73      1.0000 0.25000  0.25000  0.25000  Biso   1.000  C
  C74      1.0000 0.30302  0.42978  0.13360  Biso   1.000  C
  C75      1.0000 0.69698  0.57022  0.86640  Biso   1.000  C
  C76      1.0000 0.57022  0.86640  0.69698  Biso   1.000  C
  C77      1.0000 0.42978  0.13360  0.13360  Biso   1.000  C
  C78      1.0000 0.86640  0.86640  0.69698  Biso   1.000  C
  C79      1.0000 0.75000  0.75000  0.75000  Biso   1.000  C
  C80      1.0000 0.30302  0.13360  0.13360  Biso   1.000  C
  C81      1.0000 0.86640  0.69698  0.57022  Biso   1.000  C
  C82      1.0000 0.42978  0.13360  0.30302  Biso   1.000  C
  C83      1.0000 0.33611  0.56917  0.04736  Biso   1.000  C
  C84      1.0000 0.95490  0.42685  0.95490  Biso   1.000  C
  C85      1.0000 0.56917  0.04736  0.04736  Biso   1.000  C
  C86      1.0000 0.33611  0.04736  0.56917  Biso   1.000  C
  C87      1.0000 0.43083  0.66389  0.95264  Biso   1.000  C
  C88      1.0000 0.66335  0.42685  0.95490  Biso   1.000  C
  C89      1.0000 0.04736  0.56917  0.33611  Biso   1.000  C
  C90      1.0000 0.04736  0.33611  0.04736  Biso   1.000  C
  C91      1.0000 0.56917  0.33611  0.04736  Biso   1.000  C
  C92      1.0000 0.66389  0.95264  0.95264  Biso   1.000  C
  C93      1.0000 0.43083  0.95264  0.95264  Biso   1.000  C
  C94      1.0000 0.04736  0.33611  0.56917  Biso   1.000  C
  C95      1.0000 0.43083  0.95264  0.66389  Biso   1.000  C
  C96      1.0000 0.33611  0.04736  0.04736  Biso   1.000  C
  C97      1.0000 0.95490  0.95490  0.42685  Biso   1.000  C
  C98      1.0000 0.57315  0.04510  0.33665  Biso   1.000  C
  C99      1.0000 0.95490  0.95490  0.66335  Biso   1.000  C
  C100     1.0000 0.04510  0.57315  0.04510  Biso   1.000  C
  C101     1.0000 0.04736  0.04736  0.33611  Biso   1.000  C
  C102     1.0000 0.04736  0.04736  0.56917  Biso   1.000  C
  C103     1.0000 0.95490  0.42685  0.66335  Biso   1.000  C
  C104     1.0000 0.95264  0.66389  0.43083  Biso   1.000  C
  C105     1.0000 0.95490  0.66335  0.95490  Biso   1.000  C
  C106     1.0000 0.66389  0.95264  0.43083  Biso   1.000  C
  O1       1.0000 0.95982  0.00324  0.96184  Biso   1.000  O
  O2       1.0000 0.54638  0.60563  0.56826  Biso   1.000  O
  O3       1.0000 0.95934  0.18142  0.96254  Biso   1.000  O
  O4       1.0000 0.95949  0.00350  0.14076  Biso   1.000  O
  O5       1.0000 0.13505  0.00394  0.96254  Biso   1.000  O
  O6       1.0000 0.37115  0.60493  0.56755  Biso   1.000  O
  O7       1.0000 0.54671  0.60538  0.38934  Biso   1.000  O
  O8       1.0000 0.54686  0.42746  0.56755  Biso   1.000  O
  O9       1.0000 0.79160  0.14349  0.33241  Biso   1.000  O
  O10      1.0000 0.32307  0.83493  0.10360  Biso   1.000  O
  O11      1.0000 0.09721  0.37270  0.79318  Biso   1.000  O
  O12      1.0000 0.40855  0.77451  0.19768  Biso   1.000  O
  O13      1.0000 0.71479  0.23695  0.42650  Biso   1.000  O
  O14      1.0000 0.18339  0.46404  0.73692  Biso   1.000  O
  O15      1.0000 0.71460  0.46538  0.19768  Biso   1.000  O
  O16      1.0000 0.18313  0.77394  0.42650  Biso   1.000  O
  O17      1.0000 0.40899  0.23618  0.73692  Biso   1.000  O
  O18      1.0000 0.09766  0.83436  0.33241  Biso   1.000  O
  O19      1.0000 0.79141  0.37192  0.10360  Biso   1.000  O
  O20      1.0000 0.32281  0.14483  0.79318  Biso   1.000  O
  O21      1.0000 0.79945  0.36580  0.79957  Biso   1.000  O
  O22      1.0000 0.79376  0.14586  0.79225  Biso   1.000  O
  O23      1.0000 0.79988  0.84075  0.32550  Biso   1.000  O
  O24      1.0000 0.79401  0.83400  0.10463  Biso   1.000  O
  O25      1.0000 0.31798  0.84206  0.79957  Biso   1.000  O
  O26      1.0000 0.10174  0.83478  0.79225  Biso   1.000  O
  O27      1.0000 0.18822  0.76682  0.73052  Biso   1.000  O
  O28      1.0000 0.40446  0.77409  0.73785  Biso   1.000  O
  O29      1.0000 0.70632  0.76813  0.20459  Biso   1.000  O
  O30      1.0000 0.71219  0.77487  0.42547  Biso   1.000  O
  O31      1.0000 0.70675  0.24307  0.73052  Biso   1.000  O
  O32      1.0000 0.71245  0.46301  0.73785  Biso   1.000  O
  O33      1.0000 0.77629  0.20684  0.30497  Biso   1.000  O
  O34      1.0000 0.29593  0.81946  0.16714  Biso   1.000  O
  O35      1.0000 0.15972  0.34541  0.77781  Biso   1.000  O
  O36      1.0000 0.34605  0.78975  0.22512  Biso   1.000  O
  O37      1.0000 0.73003  0.26443  0.36295  Biso   1.000  O
  O38      1.0000 0.21059  0.40072  0.75229  Biso   1.000  O
  O39      1.0000 0.72991  0.40203  0.22512  Biso   1.000  O
  O40      1.0000 0.21027  0.78941  0.36295  Biso   1.000  O
  O41      1.0000 0.34648  0.26346  0.75229  Biso   1.000  O
  O42      1.0000 0.16015  0.81912  0.30497  Biso   1.000  O
  O43      1.0000 0.77618  0.34444  0.16714  Biso   1.000  O
  O44      1.0000 0.29561  0.20815  0.77781  Biso   1.000  O
  O45      1.0000 0.86337  0.19253  0.86405  Biso   1.000  O
  O46      1.0000 0.80534  0.24805  0.80483  Biso   1.000  O
  O47      1.0000 0.78012  0.34191  0.77956  Biso   1.000  O
  O48      1.0000 0.77677  0.20909  0.77523  Biso   1.000  O
  O49      1.0000 0.86360  0.90539  0.15167  Biso   1.000  O
  O50      1.0000 0.80567  0.84628  0.20728  Biso   1.000  O
  O51      1.0000 0.78055  0.82088  0.30146  Biso   1.000  O
  O52      1.0000 0.77709  0.81689  0.16807  Biso   1.000  O
  O53      1.0000 0.14694  0.90611  0.86405  Biso   1.000  O
  O54      1.0000 0.20213  0.84728  0.80483  Biso   1.000  O
  O55      1.0000 0.29469  0.82218  0.77956  Biso   1.000  O
  O56      1.0000 0.16409  0.81787  0.77523  Biso   1.000  O
  O57      1.0000 0.35926  0.70277  0.66604  Biso   1.000  O
  O58      1.0000 0.30408  0.76159  0.72526  Biso   1.000  O
  O59      1.0000 0.21152  0.78670  0.75054  Biso   1.000  O
  O60      1.0000 0.34211  0.79100  0.75487  Biso   1.000  O
  O61      1.0000 0.64260  0.70348  0.37842  Biso   1.000  O
  O62      1.0000 0.70053  0.76259  0.32282  Biso   1.000  O
  O63      1.0000 0.72565  0.78800  0.22863  Biso   1.000  O
  O64      1.0000 0.72911  0.79198  0.36202  Biso   1.000  O
  O65      1.0000 0.64284  0.41634  0.66604  Biso   1.000  O
  O66      1.0000 0.70086  0.36082  0.72526  Biso   1.000  O
  O67      1.0000 0.72608  0.26696  0.75054  Biso   1.000  O
  O68      1.0000 0.72943  0.39979  0.75487  Biso   1.000  O
  O69      1.0000 0.86215  0.19110  0.15095  Biso   1.000  O
  O70      1.0000 0.80914  0.24546  0.20568  Biso   1.000  O
  O71      1.0000 0.14460  0.90580  0.15095  Biso   1.000  O
  O72      1.0000 0.19824  0.85245  0.20568  Biso   1.000  O
  O73      1.0000 0.14437  0.19181  0.86446  Biso   1.000  O
  O74      1.0000 0.19792  0.24644  0.81102  Biso   1.000  O
  O75      1.0000 0.36160  0.70307  0.37915  Biso   1.000  O
  O76      1.0000 0.30796  0.75642  0.32442  Biso   1.000  O
  O77      1.0000 0.64406  0.41778  0.37915  Biso   1.000  O
  O78      1.0000 0.69706  0.36341  0.32442  Biso   1.000  O
  O79      1.0000 0.36183  0.41706  0.66563  Biso   1.000  O
  O80      1.0000 0.30828  0.36243  0.71907  Biso   1.000  O
  O81      1.0000 0.88624  0.23056  0.05995  Biso   1.000  O
  O82      1.0000 0.05509  0.92994  0.19035  Biso   1.000  O
  O83      1.0000 0.18341  0.10113  0.88880  Biso   1.000  O
  O84      1.0000 0.32265  0.67861  0.47015  Biso   1.000  O
  O85      1.0000 0.61985  0.50850  0.33975  Biso   1.000  O
  O86      1.0000 0.45136  0.37789  0.64130  Biso   1.000  O
  O87      1.0000 0.61996  0.37832  0.47015  Biso   1.000  O
  O88      1.0000 0.45111  0.67893  0.33975  Biso   1.000  O
  O89      1.0000 0.32279  0.50775  0.64130  Biso   1.000  O
  O90      1.0000 0.18355  0.93026  0.05995  Biso   1.000  O
  O91      1.0000 0.88635  0.10038  0.19035  Biso   1.000  O
  O92      1.0000 0.05484  0.23098  0.88880  Biso   1.000  O
  O93      1.0000 0.00517  0.04981  0.00872  Biso   1.000  O
  O94      1.0000 0.50104  0.55906  0.52138  Biso   1.000  O
  O95      1.0000 0.88686  0.10217  0.88757  Biso   1.000  O
  O96      1.0000 0.88571  0.23161  0.88726  Biso   1.000  O
  O97      1.0000 0.88700  0.92904  0.06099  Biso   1.000  O
  O98      1.0000 0.88596  0.92841  0.19098  Biso   1.000  O
  O99      1.0000 0.05784  0.92947  0.88757  Biso   1.000  O
  O100     1.0000 0.18516  0.92916  0.88726  Biso   1.000  O
  O101     1.0000 0.44836  0.67940  0.64252  Biso   1.000  O
  O102     1.0000 0.32105  0.67971  0.64283  Biso   1.000  O
  O103     1.0000 0.61920  0.67983  0.46910  Biso   1.000  O
  O104     1.0000 0.62024  0.68047  0.33912  Biso   1.000  O
  O105     1.0000 0.61934  0.50671  0.64252  Biso   1.000  O
  O106     1.0000 0.62049  0.37726  0.64283  Biso   1.000  O
