data_image0
_cell_length_a       18.1065
_cell_length_b       18.1065
_cell_length_c       18.1065
_cell_angle_alpha    60
_cell_angle_beta     60
_cell_angle_gamma    60

_symmetry_space_group_name_H-M    "P 1"
_symmetry_int_tables_number       1

loop_
  _symmetry_equiv_pos_as_xyz
  'x, y, z'

loop_
  _atom_site_label
  _atom_site_occupancy
  _atom_site_fract_x
  _atom_site_fract_y
  _atom_site_fract_z
  _atom_site_thermal_displace_type
  _atom_site_B_iso_or_equiv
  _atom_site_type_symbol
  C1       1.0000 0.79354  0.61938  0.79354  Biso   1.000  C
  C2       1.0000 0.61938  0.79354  0.79354  Biso   1.000  C
  C3       1.0000 0.20646  0.20646  0.38062  Biso   1.000  C
  C4       1.0000 0.79354  0.79354  0.79354  Biso   1.000  C
  C5       1.0000 0.20646  0.38062  0.20646  Biso   1.000  C
  C6       1.0000 0.20646  0.20646  0.20646  Biso   1.000  C
  C7       1.0000 0.38062  0.20646  0.20646  Biso   1.000  C
  C8       1.0000 0.79354  0.79354  0.61938  Biso   1.000  C
  C9       1.0000 0.41290  0.53690  0.02510  Biso   1.000  C
  C10      1.0000 0.97490  0.46310  0.97490  Biso   1.000  C
  C11      1.0000 0.53690  0.02510  0.02510  Biso   1.000  C
  C12      1.0000 0.94610  0.55390  0.55390  Biso   1.000  C
  C13      1.0000 0.41290  0.02510  0.53690  Biso   1.000  C
  C14      1.0000 0.55390  0.55390  0.94610  Biso   1.000  C
  C15      1.0000 0.38730  0.38730  0.11270  Biso   1.000  C
  C16      1.0000 0.46310  0.58710  0.97490  Biso   1.000  C
  C17      1.0000 0.58710  0.46310  0.97490  Biso   1.000  C
  C18      1.0000 0.94610  0.94610  0.55390  Biso   1.000  C
  C19      1.0000 0.94610  0.55390  0.94610  Biso   1.000  C
  C20      1.0000 0.02510  0.53690  0.41290  Biso   1.000  C
  C21      1.0000 0.02510  0.41290  0.02510  Biso   1.000  C
  C22      1.0000 0.88730  0.61270  0.88730  Biso   1.000  C
  C23      1.0000 0.61270  0.88730  0.61270  Biso   1.000  C
  C24      1.0000 0.38730  0.11270  0.11270  Biso   1.000  C
  C25      1.0000 0.61270  0.88730  0.88730  Biso   1.000  C
  C26      1.0000 0.61270  0.61270  0.88730  Biso   1.000  C
  C27      1.0000 0.53690  0.41290  0.02510  Biso   1.000  C
  C28      1.0000 0.58710  0.97490  0.97490  Biso   1.000  C
  C29      1.0000 0.11270  0.38730  0.11270  Biso   1.000  C
  C30      1.0000 0.46310  0.97490  0.97490  Biso   1.000  C
  C31      1.0000 0.02510  0.41290  0.53690  Biso   1.000  C
  C32      1.0000 0.88730  0.88730  0.61270  Biso   1.000  C
  C33      1.0000 0.46310  0.97490  0.58710  Biso   1.000  C
  C34      1.0000 0.38730  0.11270  0.38730  Biso   1.000  C
  C35      1.0000 0.05390  0.44610  0.05390  Biso   1.000  C
  C36      1.0000 0.41290  0.02510  0.02510  Biso   1.000  C
  C37      1.0000 0.97490  0.97490  0.46310  Biso   1.000  C
  C38      1.0000 0.88730  0.61270  0.61270  Biso   1.000  C
  C39      1.0000 0.53690  0.02510  0.41290  Biso   1.000  C
  C40      1.0000 0.97490  0.97490  0.58710  Biso   1.000  C
  C41      1.0000 0.44610  0.05390  0.44610  Biso   1.000  C
  C42      1.0000 0.02510  0.53690  0.02510  Biso   1.000  C
  C43      1.0000 0.02510  0.02510  0.41290  Biso   1.000  C
  C44      1.0000 0.11270  0.38730  0.38730  Biso   1.000  C
  C45      1.0000 0.02510  0.02510  0.53690  Biso   1.000  C
  C46      1.0000 0.97490  0.46310  0.58710  Biso   1.000  C
  C47      1.0000 0.97490  0.58710  0.46310  Biso   1.000  C
  C48      1.0000 0.55390  0.94610  0.94610  Biso   1.000  C
  C49      1.0000 0.97490  0.58710  0.97490  Biso   1.000  C
  C50      1.0000 0.44610  0.05390  0.05390  Biso   1.000  C
  C51      1.0000 0.05390  0.44610  0.44610  Biso   1.000  C
  C52      1.0000 0.11270  0.11270  0.38730  Biso   1.000  C
  C53      1.0000 0.05390  0.05390  0.44610  Biso   1.000  C
  C54      1.0000 0.55390  0.94610  0.55390  Biso   1.000  C
  C55      1.0000 0.58710  0.97490  0.46310  Biso   1.000  C
  C56      1.0000 0.44610  0.44610  0.05390  Biso   1.000  C
  C57      1.0000 0.13360  0.42978  0.13360  Biso   1.000  C
  C58      1.0000 0.13360  0.42978  0.30302  Biso   1.000  C
  C59      1.0000 0.86640  0.57022  0.86640  Biso   1.000  C
  C60      1.0000 0.30302  0.13360  0.42978  Biso   1.000  C
  C61      1.0000 0.13360  0.13360  0.42978  Biso   1.000  C
  C62      1.0000 0.86640  0.57022  0.69698  Biso   1.000  C
  C63      1.0000 0.69698  0.86640  0.57022  Biso   1.000  C
  C64      1.0000 0.86640  0.86640  0.57022  Biso   1.000  C
  C65      1.0000 0.13360  0.30302  0.13360  Biso   1.000  C
  C66      1.0000 0.42978  0.30302  0.13360  Biso   1.000  C
  C67      1.0000 0.86640  0.69698  0.86640  Biso   1.000  C
  C68      1.0000 0.13360  0.13360  0.30302  Biso   1.000  C
  C69      1.0000 0.69698  0.86640  0.86640  Biso   1.000  C
  C70      1.0000 0.57022  0.69698  0.86640  Biso   1.000  C
  C71      1.0000 0.57022  0.86640  0.86640  Biso   1.000  C
  C72      1.0000 0.13360  0.30302  0.42978  Biso   1.000  C
  C73      1.0000 0.25000  0.25000  0.25000  Biso   1.000  C
  C74      1.0000 0.30302  0.42978  0.13360  Biso   1.000  C
  C75      1.0000 0.69698  0.57022  0.86640  Biso   1.000  C
  C76      1.0000 0.57022  0.86640  0.69698  Biso   1.000  C
  C77      1.0000 0.42978  0.13360  0.13360  Biso   1.000  C
  C78      1.0000 0.86640  0.86640  0.69698  Biso   1.000  C
  C79      1.0000 0.75000  0.75000  0.75000  Biso   1.000  C
  C80      1.0000 0.30302  0.13360  0.13360  Biso   1.000  C
  C81      1.0000 0.86640  0.69698  0.57022  Biso   1.000  C
  C82      1.0000 0.42978  0.13360  0.30302  Biso   1.000  C
  C83      1.0000 0.33611  0.56917  0.04736  Biso   1.000  C
  C84      1.0000 0.95490  0.42685  0.95490  Biso   1.000  C
  C85      1.0000 0.56917  0.04736  0.04736  Biso   1.000  C
  C86      1.0000 0.33611  0.04736  0.56917  Biso   1.000  C
  C87      1.0000 0.43083  0.66389  0.95264  Biso   1.000  C
  C88      1.0000 0.66335  0.42685  0.95490  Biso   1.000  C
  C89      1.0000 0.04736  0.56917  0.33611  Biso   1.000  C
  C90      1.0000 0.04736  0.33611  0.04736  Biso   1.000  C
  C91      1.0000 0.56917  0.33611  0.04736  Biso   1.000  C
  C92      1.0000 0.66389  0.95264  0.95264  Biso   1.000  C
  C93      1.0000 0.43083  0.95264  0.95264  Biso   1.000  C
  C94      1.0000 0.04736  0.33611  0.56917  Biso   1.000  C
  C95      1.0000 0.43083  0.95264  0.66389  Biso   1.000  C
  C96      1.0000 0.33611  0.04736  0.04736  Biso   1.000  C
  C97      1.0000 0.95490  0.95490  0.42685  Biso   1.000  C
  C98      1.0000 0.57315  0.04510  0.33665  Biso   1.000  C
  C99      1.0000 0.95490  0.95490  0.66335  Biso   1.000  C
  C100     1.0000 0.04510  0.57315  0.04510  Biso   1.000  C
  C101     1.0000 0.04736  0.04736  0.33611  Biso   1.000  C
  C102     1.0000 0.04736  0.04736  0.56917  Biso   1.000  C
  C103     1.0000 0.95490  0.42685  0.66335  Biso   1.000  C
  C104     1.0000 0.95264  0.66389  0.43083  Biso   1.000  C
  C105     1.0000 0.95490  0.66335  0.95490  Biso   1.000  C
  C106     1.0000 0.66389  0.95264  0.43083  Biso   1.000  C
  O1       1.0000 0.49090  0.54967  0.47871  Biso   1.000  O
  O2       1.0000 0.66815  0.37241  0.47871  Biso   1.000  O
  O3       1.0000 0.49090  0.37241  0.47871  Biso   1.000  O
  O4       1.0000 0.49090  0.37241  0.65597  Biso   1.000  O
  O5       1.0000 0.91338  0.97213  0.07843  Biso   1.000  O
  O6       1.0000 0.09064  0.79487  0.07843  Biso   1.000  O
  O7       1.0000 0.09064  0.97213  0.07843  Biso   1.000  O
  O8       1.0000 0.09064  0.97213  0.90117  Biso   1.000  O
  O9       1.0000 0.32587  0.73933  0.31368  Biso   1.000  O
  O10      1.0000 0.85782  0.20738  0.61911  Biso   1.000  O
  O11      1.0000 0.32587  0.51281  0.31368  Biso   1.000  O
  O12      1.0000 0.63130  0.20738  0.84563  Biso   1.000  O
  O13      1.0000 0.32587  0.20738  0.61911  Biso   1.000  O
  O14      1.0000 0.85782  0.51281  0.31368  Biso   1.000  O
  O15      1.0000 0.32587  0.20738  0.84563  Biso   1.000  O
  O16      1.0000 0.63130  0.73933  0.31368  Biso   1.000  O
  O17      1.0000 0.32587  0.51281  0.84563  Biso   1.000  O
  O18      1.0000 0.85782  0.20738  0.31368  Biso   1.000  O
  O19      1.0000 0.32587  0.73933  0.61911  Biso   1.000  O
  O20      1.0000 0.63130  0.20738  0.31368  Biso   1.000  O
  O21      1.0000 0.72371  0.13716  0.24347  Biso   1.000  O
  O22      1.0000 0.25566  0.60522  0.93803  Biso   1.000  O
  O23      1.0000 0.95023  0.13716  0.24347  Biso   1.000  O
  O24      1.0000 0.25566  0.83173  0.71152  Biso   1.000  O
  O25      1.0000 0.25566  0.13716  0.93803  Biso   1.000  O
  O26      1.0000 0.95023  0.60522  0.24347  Biso   1.000  O
  O27      1.0000 0.25566  0.13716  0.71152  Biso   1.000  O
  O28      1.0000 0.72371  0.83173  0.24347  Biso   1.000  O
  O29      1.0000 0.95023  0.13716  0.71152  Biso   1.000  O
  O30      1.0000 0.25566  0.60522  0.24347  Biso   1.000  O
  O31      1.0000 0.72371  0.13716  0.93803  Biso   1.000  O
  O32      1.0000 0.25566  0.83173  0.24347  Biso   1.000  O
  O33      1.0000 0.30710  0.71219  0.29490  Biso   1.000  O
  O34      1.0000 0.83068  0.18860  0.68381  Biso   1.000  O
  O35      1.0000 0.30710  0.57750  0.29490  Biso   1.000  O
  O36      1.0000 0.69600  0.18860  0.81849  Biso   1.000  O
  O37      1.0000 0.30710  0.18860  0.68381  Biso   1.000  O
  O38      1.0000 0.83068  0.57750  0.29490  Biso   1.000  O
  O39      1.0000 0.30710  0.18860  0.81849  Biso   1.000  O
  O40      1.0000 0.69600  0.71219  0.29490  Biso   1.000  O
  O41      1.0000 0.30710  0.57750  0.81849  Biso   1.000  O
  O42      1.0000 0.83068  0.18860  0.29490  Biso   1.000  O
  O43      1.0000 0.30710  0.71219  0.68381  Biso   1.000  O
  O44      1.0000 0.69600  0.18860  0.29490  Biso   1.000  O
  O45      1.0000 0.75085  0.15594  0.26224  Biso   1.000  O
  O46      1.0000 0.27444  0.63235  0.87334  Biso   1.000  O
  O47      1.0000 0.88553  0.15594  0.26224  Biso   1.000  O
  O48      1.0000 0.27444  0.76704  0.73866  Biso   1.000  O
  O49      1.0000 0.27444  0.15594  0.87334  Biso   1.000  O
  O50      1.0000 0.88553  0.63235  0.26224  Biso   1.000  O
  O51      1.0000 0.27444  0.15594  0.73866  Biso   1.000  O
  O52      1.0000 0.75085  0.76704  0.26224  Biso   1.000  O
  O53      1.0000 0.88553  0.15594  0.73866  Biso   1.000  O
  O54      1.0000 0.27444  0.63235  0.26224  Biso   1.000  O
  O55      1.0000 0.75085  0.15594  0.87334  Biso   1.000  O
  O56      1.0000 0.27444  0.76704  0.26224  Biso   1.000  O
  O57      1.0000 0.39358  0.55836  0.38139  Biso   1.000  O
  O58      1.0000 0.33468  0.61727  0.32248  Biso   1.000  O
  O59      1.0000 0.67685  0.27509  0.66466  Biso   1.000  O
  O60      1.0000 0.73576  0.21618  0.72357  Biso   1.000  O
  O61      1.0000 0.39358  0.27509  0.66466  Biso   1.000  O
  O62      1.0000 0.33468  0.21618  0.72357  Biso   1.000  O
  O63      1.0000 0.67685  0.55836  0.38139  Biso   1.000  O
  O64      1.0000 0.73576  0.61727  0.32248  Biso   1.000  O
  O65      1.0000 0.39358  0.55836  0.66466  Biso   1.000  O
  O66      1.0000 0.33468  0.61727  0.72357  Biso   1.000  O
  O67      1.0000 0.67685  0.27509  0.38139  Biso   1.000  O
  O68      1.0000 0.73576  0.21618  0.32248  Biso   1.000  O
  O69      1.0000 0.90468  0.06945  0.17576  Biso   1.000  O
  O70      1.0000 0.84577  0.12836  0.23466  Biso   1.000  O
  O71      1.0000 0.18795  0.78618  0.89249  Biso   1.000  O
  O72      1.0000 0.24686  0.72728  0.83358  Biso   1.000  O
  O73      1.0000 0.18795  0.06945  0.89249  Biso   1.000  O
  O74      1.0000 0.24686  0.12836  0.83358  Biso   1.000  O
  O75      1.0000 0.90468  0.78618  0.17576  Biso   1.000  O
  O76      1.0000 0.84577  0.72728  0.23466  Biso   1.000  O
  O77      1.0000 0.90468  0.06945  0.89249  Biso   1.000  O
  O78      1.0000 0.84577  0.12836  0.83358  Biso   1.000  O
  O79      1.0000 0.18795  0.78618  0.17576  Biso   1.000  O
  O80      1.0000 0.24686  0.72728  0.23466  Biso   1.000  O
  O81      1.0000 0.53522  0.41672  0.52302  Biso   1.000  O
  O82      1.0000 0.04631  0.92782  0.03412  Biso   1.000  O
  O83      1.0000 0.41632  0.59835  0.40412  Biso   1.000  O
  O84      1.0000 0.71684  0.29782  0.57920  Biso   1.000  O
  O85      1.0000 0.41632  0.47290  0.40412  Biso   1.000  O
  O86      1.0000 0.59140  0.29782  0.70465  Biso   1.000  O
  O87      1.0000 0.41632  0.29782  0.57920  Biso   1.000  O
  O88      1.0000 0.71684  0.47290  0.40412  Biso   1.000  O
  O89      1.0000 0.41632  0.29782  0.70465  Biso   1.000  O
  O90      1.0000 0.59140  0.59835  0.40412  Biso   1.000  O
  O91      1.0000 0.41632  0.47290  0.70465  Biso   1.000  O
  O92      1.0000 0.71684  0.29782  0.40412  Biso   1.000  O
  O93      1.0000 0.41632  0.59835  0.57920  Biso   1.000  O
  O94      1.0000 0.59140  0.29782  0.40412  Biso   1.000  O
  O95      1.0000 0.86469  0.04672  0.15302  Biso   1.000  O
  O96      1.0000 0.16522  0.74620  0.97794  Biso   1.000  O
  O97      1.0000 0.99013  0.04672  0.15302  Biso   1.000  O
  O98      1.0000 0.16522  0.87164  0.85250  Biso   1.000  O
  O99      1.0000 0.16522  0.04672  0.97794  Biso   1.000  O
  O100     1.0000 0.99013  0.74620  0.15302  Biso   1.000  O
  O101     1.0000 0.16522  0.04672  0.85250  Biso   1.000  O
  O102     1.0000 0.86469  0.87164  0.15302  Biso   1.000  O
  O103     1.0000 0.99013  0.04672  0.85250  Biso   1.000  O
  O104     1.0000 0.16522  0.74620  0.15302  Biso   1.000  O
  O105     1.0000 0.86469  0.04672  0.97794  Biso   1.000  O
  O106     1.0000 0.16522  0.87164  0.15302  Biso   1.000  O
