data_image0
_cell_length_a       18.266
_cell_length_b       18.266
_cell_length_c       18.266
_cell_angle_alpha    60
_cell_angle_beta     60
_cell_angle_gamma    60

loop_
  _atom_site_label
  _atom_site_occupancy
  _atom_site_fract_x
  _atom_site_fract_y
  _atom_site_fract_z
  _atom_site_thermal_displace_type
  _atom_site_B_iso_or_equiv
  _atom_site_type_symbol
  Zn1      1.0000 0.29338  0.29338  0.29338  Biso   1.000  Zn
  Zn2      1.0000 0.29338  0.29338  0.11986  Biso   1.000  Zn
  Zn3      1.0000 0.29338  0.11986  0.29338  Biso   1.000  Zn
  Zn4      1.0000 0.11986  0.29338  0.29338  Biso   1.000  Zn
  Zn5      1.0000 0.70662  0.70662  0.70662  Biso   1.000  Zn
  Zn6      1.0000 0.70662  0.70662  0.88014  Biso   1.000  Zn
  Zn7      1.0000 0.88014  0.70662  0.70662  Biso   1.000  Zn
  Zn8      1.0000 0.70662  0.88014  0.70662  Biso   1.000  Zn
  H1       1.0000 0.15460  0.45520  0.45520  Biso   1.000  H
  H2       1.0000 0.45520  0.15460  0.93500  Biso   1.000  H
  H3       1.0000 0.45520  0.93500  0.15460  Biso   1.000  H
  H4       1.0000 0.93500  0.45520  0.45520  Biso   1.000  H
  H5       1.0000 0.15460  0.45520  0.93500  Biso   1.000  H
  H6       1.0000 0.45520  0.93500  0.45520  Biso   1.000  H
  H7       1.0000 0.45520  0.15460  0.45520  Biso   1.000  H
  H8       1.0000 0.93500  0.45520  0.15460  Biso   1.000  H
  H9       1.0000 0.15460  0.93500  0.45520  Biso   1.000  H
  H10      1.0000 0.45520  0.45520  0.15460  Biso   1.000  H
  H11      1.0000 0.45520  0.45520  0.93500  Biso   1.000  H
  H12      1.0000 0.93500  0.15460  0.45520  Biso   1.000  H
  H13      1.0000 0.54480  0.84540  0.54480  Biso   1.000  H
  H14      1.0000 0.84540  0.54480  0.06500  Biso   1.000  H
  H15      1.0000 0.06500  0.54480  0.84540  Biso   1.000  H
  H16      1.0000 0.54480  0.06500  0.54480  Biso   1.000  H
  H17      1.0000 0.54480  0.84540  0.06500  Biso   1.000  H
  H18      1.0000 0.06500  0.54480  0.54480  Biso   1.000  H
  H19      1.0000 0.84540  0.54480  0.54480  Biso   1.000  H
  H20      1.0000 0.54480  0.06500  0.84540  Biso   1.000  H
  H21      1.0000 0.06500  0.84540  0.54480  Biso   1.000  H
  H22      1.0000 0.54480  0.54480  0.84540  Biso   1.000  H
  H23      1.0000 0.54480  0.54480  0.06500  Biso   1.000  H
  H24      1.0000 0.84540  0.06500  0.54480  Biso   1.000  H
  C1       1.0000 0.09270  0.47310  0.47310  Biso   1.000  C
  C2       1.0000 0.47310  0.09270  0.96110  Biso   1.000  C
  C3       1.0000 0.47310  0.96110  0.09270  Biso   1.000  C
  C4       1.0000 0.96110  0.47310  0.47310  Biso   1.000  C
  C5       1.0000 0.09270  0.47310  0.96110  Biso   1.000  C
  C6       1.0000 0.47310  0.96110  0.47310  Biso   1.000  C
  C7       1.0000 0.47310  0.09270  0.47310  Biso   1.000  C
  C8       1.0000 0.96110  0.47310  0.09270  Biso   1.000  C
  C9       1.0000 0.09270  0.96110  0.47310  Biso   1.000  C
  C10      1.0000 0.47310  0.47310  0.09270  Biso   1.000  C
  C11      1.0000 0.47310  0.47310  0.96110  Biso   1.000  C
  C12      1.0000 0.96110  0.09270  0.47310  Biso   1.000  C
  C13      1.0000 0.52690  0.90730  0.52690  Biso   1.000  C
  C14      1.0000 0.90730  0.52690  0.03890  Biso   1.000  C
  C15      1.0000 0.03890  0.52690  0.90730  Biso   1.000  C
  C16      1.0000 0.52690  0.03890  0.52690  Biso   1.000  C
  C17      1.0000 0.52690  0.90730  0.03890  Biso   1.000  C
  C18      1.0000 0.03890  0.52690  0.52690  Biso   1.000  C
  C19      1.0000 0.90730  0.52690  0.52690  Biso   1.000  C
  C20      1.0000 0.52690  0.03890  0.90730  Biso   1.000  C
  C21      1.0000 0.03890  0.90730  0.52690  Biso   1.000  C
  C22      1.0000 0.52690  0.52690  0.90730  Biso   1.000  C
  C23      1.0000 0.52690  0.52690  0.03890  Biso   1.000  C
  C24      1.0000 0.90730  0.03890  0.52690  Biso   1.000  C
  C25      1.0000 0.11130  0.38870  0.38870  Biso   1.000  C
  C26      1.0000 0.05380  0.44620  0.44620  Biso   1.000  C
  C27      1.0000 0.38870  0.11130  0.11130  Biso   1.000  C
  C28      1.0000 0.44620  0.05380  0.05380  Biso   1.000  C
  C29      1.0000 0.11130  0.38870  0.11130  Biso   1.000  C
  C30      1.0000 0.05380  0.44620  0.05380  Biso   1.000  C
  C31      1.0000 0.38870  0.11130  0.38870  Biso   1.000  C
  C32      1.0000 0.44620  0.05380  0.44620  Biso   1.000  C
  C33      1.0000 0.11130  0.11130  0.38870  Biso   1.000  C
  C34      1.0000 0.05380  0.05380  0.44620  Biso   1.000  C
  C35      1.0000 0.38870  0.38870  0.11130  Biso   1.000  C
  C36      1.0000 0.44620  0.44620  0.05380  Biso   1.000  C
  C37      1.0000 0.61130  0.88870  0.61130  Biso   1.000  C
  C38      1.0000 0.55380  0.94620  0.55380  Biso   1.000  C
  C39      1.0000 0.88870  0.61130  0.88870  Biso   1.000  C
  C40      1.0000 0.94620  0.55380  0.94620  Biso   1.000  C
  C41      1.0000 0.61130  0.88870  0.88870  Biso   1.000  C
  C42      1.0000 0.55380  0.94620  0.94620  Biso   1.000  C
  C43      1.0000 0.88870  0.61130  0.61130  Biso   1.000  C
  C44      1.0000 0.94620  0.55380  0.55380  Biso   1.000  C
  C45      1.0000 0.88870  0.88870  0.61130  Biso   1.000  C
  C46      1.0000 0.94620  0.94620  0.55380  Biso   1.000  C
  C47      1.0000 0.61130  0.61130  0.88870  Biso   1.000  C
  C48      1.0000 0.55380  0.55380  0.94620  Biso   1.000  C
  O1       1.0000 0.25000  0.25000  0.25000  Biso   1.000  O
  O2       1.0000 0.75000  0.75000  0.75000  Biso   1.000  O
  O3       1.0000 0.19777  0.36600  0.36600  Biso   1.000  O
  O4       1.0000 0.36600  0.19777  0.07023  Biso   1.000  O
  O5       1.0000 0.36600  0.07023  0.19777  Biso   1.000  O
  O6       1.0000 0.07023  0.36600  0.36600  Biso   1.000  O
  O7       1.0000 0.19777  0.36600  0.07023  Biso   1.000  O
  O8       1.0000 0.36600  0.07023  0.36600  Biso   1.000  O
  O9       1.0000 0.36600  0.19777  0.36600  Biso   1.000  O
  O10      1.0000 0.07023  0.36600  0.19777  Biso   1.000  O
  O11      1.0000 0.19777  0.07023  0.36600  Biso   1.000  O
  O12      1.0000 0.36600  0.36600  0.19777  Biso   1.000  O
  O13      1.0000 0.36600  0.36600  0.07023  Biso   1.000  O
  O14      1.0000 0.07023  0.19777  0.36600  Biso   1.000  O
  O15      1.0000 0.63400  0.80223  0.63400  Biso   1.000  O
  O16      1.0000 0.80223  0.63400  0.92977  Biso   1.000  O
  O17      1.0000 0.92977  0.63400  0.80223  Biso   1.000  O
  O18      1.0000 0.63400  0.92977  0.63400  Biso   1.000  O
  O19      1.0000 0.63400  0.80223  0.92977  Biso   1.000  O
  O20      1.0000 0.92977  0.63400  0.63400  Biso   1.000  O
  O21      1.0000 0.80223  0.63400  0.63400  Biso   1.000  O
  O22      1.0000 0.63400  0.92977  0.80223  Biso   1.000  O
  O23      1.0000 0.92977  0.80223  0.63400  Biso   1.000  O
  O24      1.0000 0.63400  0.63400  0.80223  Biso   1.000  O
  O25      1.0000 0.63400  0.63400  0.92977  Biso   1.000  O
  O26      1.0000 0.80223  0.92977  0.63400  Biso   1.000  O
  Zn9      1.0000 0.98791  0.59297  0.25997  Biso   1.000  Zn
  Zn10     1.0000 0.98786  0.59301  0.43107  Biso   1.000  Zn
  Zn11     1.0000 0.98791  0.76411  0.25997  Biso   1.000  Zn
  Zn12     1.0000 0.15900  0.59302  0.25992  Biso   1.000  Zn
  Zn13     1.0000 0.57977  0.18492  0.83917  Biso   1.000  Zn
  Zn14     1.0000 0.57982  0.18488  0.66807  Biso   1.000  Zn
  Zn15     1.0000 0.57977  0.01378  0.83917  Biso   1.000  Zn
  Zn16     1.0000 0.40867  0.18487  0.83922  Biso   1.000  Zn
  C49      1.0000 0.81070  0.41482  0.45833  Biso   1.000  C
  C50      1.0000 0.82139  0.79156  0.06990  Biso   1.000  C
  C51      1.0000 0.19895  0.41421  0.07089  Biso   1.000  C
  C52      1.0000 0.80972  0.41581  0.58807  Biso   1.000  C
  C53      1.0000 0.19914  0.41382  0.58906  Biso   1.000  C
  C54      1.0000 0.82178  0.79137  0.58788  Biso   1.000  C
  C55      1.0000 0.19894  0.93378  0.07011  Biso   1.000  C
  C56      1.0000 0.81050  0.93477  0.06812  Biso   1.000  C
  C57      1.0000 0.81148  0.93360  0.45834  Biso   1.000  C
  C58      1.0000 0.34134  0.79135  0.06912  Biso   1.000  C
  C59      1.0000 0.32966  0.41560  0.45854  Biso   1.000  C
  C60      1.0000 0.32848  0.41658  0.06852  Biso   1.000  C
  C61      1.0000 0.75697  0.36307  0.64081  Biso   1.000  C
  C62      1.0000 0.75896  0.98631  0.01658  Biso   1.000  C
  C63      1.0000 0.38140  0.36366  0.01559  Biso   1.000  C
  C64      1.0000 0.75796  0.36208  0.51107  Biso   1.000  C
  C65      1.0000 0.38120  0.36407  0.51008  Biso   1.000  C
  C66      1.0000 0.75856  0.98652  0.51126  Biso   1.000  C
  C67      1.0000 0.38141  0.85679  0.01637  Biso   1.000  C
  C68      1.0000 0.75718  0.85579  0.01836  Biso   1.000  C
  C69      1.0000 0.75619  0.85698  0.64080  Biso   1.000  C
  C70      1.0000 0.25168  0.98652  0.01736  Biso   1.000  C
  C71      1.0000 0.25068  0.36229  0.64060  Biso   1.000  C
  C72      1.0000 0.25187  0.36129  0.01796  Biso   1.000  C
  C73      1.0000 0.83696  0.44206  0.49645  Biso   1.000  C
  C74      1.0000 0.89489  0.50000  0.43851  Biso   1.000  C
  C75      1.0000 0.24972  0.82947  0.09636  Biso   1.000  C
  C76      1.0000 0.16645  0.77155  0.16695  Biso   1.000  C
  C77      1.0000 0.73072  0.33583  0.60269  Biso   1.000  C
  C78      1.0000 0.67278  0.27789  0.66063  Biso   1.000  C
  C79      1.0000 0.34329  0.94840  0.99012  Biso   1.000  C
  C80      1.0000 0.40123  0.00634  0.93218  Biso   1.000  C
  C81      1.0000 0.23725  0.44185  0.09616  Biso   1.000  C
  C82      1.0000 0.16692  0.49953  0.16648  Biso   1.000  C
  C83      1.0000 0.83676  0.84237  0.49665  Biso   1.000  C
  C84      1.0000 0.89442  0.77202  0.43899  Biso   1.000  C
  C85      1.0000 0.34310  0.33602  0.99032  Biso   1.000  C
  C86      1.0000 0.40076  0.27836  0.93266  Biso   1.000  C
  C87      1.0000 0.73092  0.94821  0.60249  Biso   1.000  C
  C88      1.0000 0.67326  0.00587  0.66015  Biso   1.000  C
  C89      1.0000 0.83657  0.84256  0.09596  Biso   1.000  C
  C90      1.0000 0.89422  0.77223  0.16628  Biso   1.000  C
  C91      1.0000 0.23745  0.44167  0.49684  Biso   1.000  C
  C92      1.0000 0.16712  0.49933  0.43918  Biso   1.000  C
  C93      1.0000 0.73112  0.94800  0.99052  Biso   1.000  C
  C94      1.0000 0.67346  0.00566  0.93286  Biso   1.000  C
  C95      1.0000 0.34290  0.33622  0.60229  Biso   1.000  C
  C96      1.0000 0.40056  0.27856  0.65995  Biso   1.000  C
  O27      1.0000 0.91563  0.52232  0.35534  Biso   1.000  O
  O28      1.0000 0.08410  0.52040  0.18927  Biso   1.000  O
  O29      1.0000 0.91604  0.68797  0.18891  Biso   1.000  O
  O30      1.0000 0.91721  0.52073  0.47864  Biso   1.000  O
  O31      1.0000 0.91529  0.68921  0.47814  Biso   1.000  O
  O32      1.0000 0.08286  0.52115  0.47899  Biso   1.000  O
  O33      1.0000 0.08328  0.81168  0.18769  Biso   1.000  O
  O34      1.0000 0.91721  0.81118  0.35617  Biso   1.000  O
  O35      1.0000 0.91685  0.81203  0.18810  Biso   1.000  O
  O36      1.0000 0.20657  0.68838  0.18927  Biso   1.000  O
  O37      1.0000 0.20608  0.52232  0.18735  Biso   1.000  O
  O38      1.0000 0.20693  0.52196  0.35492  Biso   1.000  O
  O39      1.0000 0.65205  0.25558  0.74380  Biso   1.000  O
  O40      1.0000 0.48357  0.25749  0.90987  Biso   1.000  O
  O41      1.0000 0.65164  0.08992  0.91023  Biso   1.000  O
  O42      1.0000 0.65047  0.25716  0.62050  Biso   1.000  O
  O43      1.0000 0.65239  0.08868  0.62099  Biso   1.000  O
  O44      1.0000 0.48481  0.25674  0.62014  Biso   1.000  O
  O45      1.0000 0.48440  0.96621  0.91145  Biso   1.000  O
  O46      1.0000 0.65047  0.96671  0.74297  Biso   1.000  O
  O47      1.0000 0.65083  0.96586  0.91104  Biso   1.000  O
  O48      1.0000 0.36110  0.08951  0.90987  Biso   1.000  O
  O49      1.0000 0.36160  0.25557  0.91179  Biso   1.000  O
  O50      1.0000 0.36075  0.25593  0.74421  Biso   1.000  O
  O51      1.0000 0.03067  0.63578  0.30273  Biso   1.000  O
  O52      1.0000 0.53701  0.14211  0.79640  Biso   1.000  O
  H25      1.0000 0.84259  0.71593  0.09256  Biso   1.000  H
  H26      1.0000 0.83316  0.96654  0.08932  Biso   1.000  H
  H27      1.0000 0.73776  0.06194  0.99392  Biso   1.000  H
  H28      1.0000 0.74719  0.81132  0.99716  Biso   1.000  H
  H29      1.0000 0.83439  0.96538  0.38272  Biso   1.000  H
  H30      1.0000 0.73762  0.06214  0.47949  Biso   1.000  H
  H31      1.0000 0.12333  0.43515  0.09379  Biso   1.000  H
  H32      1.0000 0.22009  0.33839  0.99702  Biso   1.000  H
  H33      1.0000 0.83123  0.43814  0.61985  Biso   1.000  H
  H34      1.0000 0.12351  0.43502  0.62084  Biso   1.000  H
  H35      1.0000 0.21990  0.06215  0.99585  Biso   1.000  H
  H36      1.0000 0.21891  0.33963  0.71623  Biso   1.000  H
  H37      1.0000 0.84272  0.71575  0.61965  Biso   1.000  H
  H38      1.0000 0.74595  0.81252  0.71642  Biso   1.000  H
  H39      1.0000 0.36026  0.43948  0.08946  Biso   1.000  H
  H40      1.0000 0.45702  0.34272  0.99269  Biso   1.000  H
  H41      1.0000 0.46971  0.81231  0.99404  Biso   1.000  H
  H42      1.0000 0.36144  0.43827  0.38291  Biso   1.000  H
  H43      1.0000 0.45683  0.34287  0.47830  Biso   1.000  H
  H44      1.0000 0.37312  0.71572  0.09063  Biso   1.000  H
  H45      1.0000 0.73645  0.33975  0.47929  Biso   1.000  H
  H46      1.0000 0.83304  0.43634  0.38270  Biso   1.000  H
  H47      1.0000 0.73464  0.34155  0.71644  Biso   1.000  H
  H48      1.0000 0.12331  0.96556  0.09244  Biso   1.000  H
