data_image0
_cell_length_a       18.1065
_cell_length_b       18.1065
_cell_length_c       18.1065
_cell_angle_alpha    60
_cell_angle_beta     60
_cell_angle_gamma    60

loop_
  _atom_site_label
  _atom_site_occupancy
  _atom_site_fract_x
  _atom_site_fract_y
  _atom_site_fract_z
  _atom_site_thermal_displace_type
  _atom_site_B_iso_or_equiv
  _atom_site_type_symbol
  C1       1.0000 0.79354  0.61938  0.79354  Biso   1.000  C
  C2       1.0000 0.61938  0.79354  0.79354  Biso   1.000  C
  C3       1.0000 0.20646  0.20646  0.38062  Biso   1.000  C
  C4       1.0000 0.79354  0.79354  0.79354  Biso   1.000  C
  C5       1.0000 0.20646  0.38062  0.20646  Biso   1.000  C
  C6       1.0000 0.20646  0.20646  0.20646  Biso   1.000  C
  C7       1.0000 0.38062  0.20646  0.20646  Biso   1.000  C
  C8       1.0000 0.79354  0.79354  0.61938  Biso   1.000  C
  C9       1.0000 0.41290  0.53690  0.02510  Biso   1.000  C
  C10      1.0000 0.97490  0.46310  0.97490  Biso   1.000  C
  C11      1.0000 0.53690  0.02510  0.02510  Biso   1.000  C
  C12      1.0000 0.94610  0.55390  0.55390  Biso   1.000  C
  C13      1.0000 0.41290  0.02510  0.53690  Biso   1.000  C
  C14      1.0000 0.55390  0.55390  0.94610  Biso   1.000  C
  C15      1.0000 0.38730  0.38730  0.11270  Biso   1.000  C
  C16      1.0000 0.46310  0.58710  0.97490  Biso   1.000  C
  C17      1.0000 0.58710  0.46310  0.97490  Biso   1.000  C
  C18      1.0000 0.94610  0.94610  0.55390  Biso   1.000  C
  C19      1.0000 0.94610  0.55390  0.94610  Biso   1.000  C
  C20      1.0000 0.02510  0.53690  0.41290  Biso   1.000  C
  C21      1.0000 0.02510  0.41290  0.02510  Biso   1.000  C
  C22      1.0000 0.88730  0.61270  0.88730  Biso   1.000  C
  C23      1.0000 0.61270  0.88730  0.61270  Biso   1.000  C
  C24      1.0000 0.38730  0.11270  0.11270  Biso   1.000  C
  C25      1.0000 0.61270  0.88730  0.88730  Biso   1.000  C
  C26      1.0000 0.61270  0.61270  0.88730  Biso   1.000  C
  C27      1.0000 0.53690  0.41290  0.02510  Biso   1.000  C
  C28      1.0000 0.58710  0.97490  0.97490  Biso   1.000  C
  C29      1.0000 0.11270  0.38730  0.11270  Biso   1.000  C
  C30      1.0000 0.46310  0.97490  0.97490  Biso   1.000  C
  C31      1.0000 0.02510  0.41290  0.53690  Biso   1.000  C
  C32      1.0000 0.88730  0.88730  0.61270  Biso   1.000  C
  C33      1.0000 0.46310  0.97490  0.58710  Biso   1.000  C
  C34      1.0000 0.38730  0.11270  0.38730  Biso   1.000  C
  C35      1.0000 0.05390  0.44610  0.05390  Biso   1.000  C
  C36      1.0000 0.41290  0.02510  0.02510  Biso   1.000  C
  C37      1.0000 0.97490  0.97490  0.46310  Biso   1.000  C
  C38      1.0000 0.88730  0.61270  0.61270  Biso   1.000  C
  C39      1.0000 0.53690  0.02510  0.41290  Biso   1.000  C
  C40      1.0000 0.97490  0.97490  0.58710  Biso   1.000  C
  C41      1.0000 0.44610  0.05390  0.44610  Biso   1.000  C
  C42      1.0000 0.02510  0.53690  0.02510  Biso   1.000  C
  C43      1.0000 0.02510  0.02510  0.41290  Biso   1.000  C
  C44      1.0000 0.11270  0.38730  0.38730  Biso   1.000  C
  C45      1.0000 0.02510  0.02510  0.53690  Biso   1.000  C
  C46      1.0000 0.97490  0.46310  0.58710  Biso   1.000  C
  C47      1.0000 0.97490  0.58710  0.46310  Biso   1.000  C
  C48      1.0000 0.55390  0.94610  0.94610  Biso   1.000  C
  C49      1.0000 0.97490  0.58710  0.97490  Biso   1.000  C
  C50      1.0000 0.44610  0.05390  0.05390  Biso   1.000  C
  C51      1.0000 0.05390  0.44610  0.44610  Biso   1.000  C
  C52      1.0000 0.11270  0.11270  0.38730  Biso   1.000  C
  C53      1.0000 0.05390  0.05390  0.44610  Biso   1.000  C
  C54      1.0000 0.55390  0.94610  0.55390  Biso   1.000  C
  C55      1.0000 0.58710  0.97490  0.46310  Biso   1.000  C
  C56      1.0000 0.44610  0.44610  0.05390  Biso   1.000  C
  C57      1.0000 0.13360  0.42978  0.13360  Biso   1.000  C
  C58      1.0000 0.13360  0.42978  0.30302  Biso   1.000  C
  C59      1.0000 0.86640  0.57022  0.86640  Biso   1.000  C
  C60      1.0000 0.30302  0.13360  0.42978  Biso   1.000  C
  C61      1.0000 0.13360  0.13360  0.42978  Biso   1.000  C
  C62      1.0000 0.86640  0.57022  0.69698  Biso   1.000  C
  C63      1.0000 0.69698  0.86640  0.57022  Biso   1.000  C
  C64      1.0000 0.86640  0.86640  0.57022  Biso   1.000  C
  C65      1.0000 0.13360  0.30302  0.13360  Biso   1.000  C
  C66      1.0000 0.42978  0.30302  0.13360  Biso   1.000  C
  C67      1.0000 0.86640  0.69698  0.86640  Biso   1.000  C
  C68      1.0000 0.13360  0.13360  0.30302  Biso   1.000  C
  C69      1.0000 0.69698  0.86640  0.86640  Biso   1.000  C
  C70      1.0000 0.57022  0.69698  0.86640  Biso   1.000  C
  C71      1.0000 0.57022  0.86640  0.86640  Biso   1.000  C
  C72      1.0000 0.13360  0.30302  0.42978  Biso   1.000  C
  C73      1.0000 0.25000  0.25000  0.25000  Biso   1.000  C
  C74      1.0000 0.30302  0.42978  0.13360  Biso   1.000  C
  C75      1.0000 0.69698  0.57022  0.86640  Biso   1.000  C
  C76      1.0000 0.57022  0.86640  0.69698  Biso   1.000  C
  C77      1.0000 0.42978  0.13360  0.13360  Biso   1.000  C
  C78      1.0000 0.86640  0.86640  0.69698  Biso   1.000  C
  C79      1.0000 0.75000  0.75000  0.75000  Biso   1.000  C
  C80      1.0000 0.30302  0.13360  0.13360  Biso   1.000  C
  C81      1.0000 0.86640  0.69698  0.57022  Biso   1.000  C
  C82      1.0000 0.42978  0.13360  0.30302  Biso   1.000  C
  C83      1.0000 0.33611  0.56917  0.04736  Biso   1.000  C
  C84      1.0000 0.95490  0.42685  0.95490  Biso   1.000  C
  C85      1.0000 0.56917  0.04736  0.04736  Biso   1.000  C
  C86      1.0000 0.33611  0.04736  0.56917  Biso   1.000  C
  C87      1.0000 0.43083  0.66389  0.95264  Biso   1.000  C
  C88      1.0000 0.66335  0.42685  0.95490  Biso   1.000  C
  C89      1.0000 0.04736  0.56917  0.33611  Biso   1.000  C
  C90      1.0000 0.04736  0.33611  0.04736  Biso   1.000  C
  C91      1.0000 0.56917  0.33611  0.04736  Biso   1.000  C
  C92      1.0000 0.66389  0.95264  0.95264  Biso   1.000  C
  C93      1.0000 0.43083  0.95264  0.95264  Biso   1.000  C
  C94      1.0000 0.04736  0.33611  0.56917  Biso   1.000  C
  C95      1.0000 0.43083  0.95264  0.66389  Biso   1.000  C
  C96      1.0000 0.33611  0.04736  0.04736  Biso   1.000  C
  C97      1.0000 0.95490  0.95490  0.42685  Biso   1.000  C
  C98      1.0000 0.57315  0.04510  0.33665  Biso   1.000  C
  C99      1.0000 0.95490  0.95490  0.66335  Biso   1.000  C
  C100     1.0000 0.04510  0.57315  0.04510  Biso   1.000  C
  C101     1.0000 0.04736  0.04736  0.33611  Biso   1.000  C
  C102     1.0000 0.04736  0.04736  0.56917  Biso   1.000  C
  C103     1.0000 0.95490  0.42685  0.66335  Biso   1.000  C
  C104     1.0000 0.95490  0.66335  0.42685  Biso   1.000  C
  C105     1.0000 0.95490  0.66335  0.95490  Biso   1.000  C
  C106     1.0000 0.66389  0.95264  0.43083  Biso   1.000  C
  O1       1.0000 0.49983  0.99967  0.77225  Biso   1.000  O
  O2       1.0000 0.49978  0.99971  0.94637  Biso   1.000  O
  O3       1.0000 0.49983  0.17383  0.77225  Biso   1.000  O
  O4       1.0000 0.67395  0.99972  0.77220  Biso   1.000  O
  O5       1.0000 0.08446  0.58440  0.36169  Biso   1.000  O
  O6       1.0000 0.08451  0.58435  0.18757  Biso   1.000  O
  O7       1.0000 0.08446  0.41023  0.36169  Biso   1.000  O
  O8       1.0000 0.91034  0.58435  0.36174  Biso   1.000  O
  O9       1.0000 0.31949  0.81837  0.97412  Biso   1.000  O
  O10      1.0000 0.31266  0.20177  0.59651  Biso   1.000  O
  O11      1.0000 0.69690  0.81774  0.59751  Biso   1.000  O
  O12      1.0000 0.31848  0.81937  0.10615  Biso   1.000  O
  O13      1.0000 0.69710  0.81735  0.10716  Biso   1.000  O
  O14      1.0000 0.31306  0.20158  0.10596  Biso   1.000  O
  O15      1.0000 0.69689  0.32881  0.59672  Biso   1.000  O
  O16      1.0000 0.31928  0.32982  0.59470  Biso   1.000  O
  O17      1.0000 0.32028  0.32863  0.97413  Biso   1.000  O
  O18      1.0000 0.82412  0.20156  0.59572  Biso   1.000  O
  O19      1.0000 0.82993  0.81916  0.97433  Biso   1.000  O
  O20      1.0000 0.82873  0.82015  0.59510  Biso   1.000  O
  O21      1.0000 0.26481  0.76570  0.15983  Biso   1.000  O
  O22      1.0000 0.26683  0.38227  0.54225  Biso   1.000  O
  O23      1.0000 0.88259  0.76630  0.54124  Biso   1.000  O
  O24      1.0000 0.26581  0.76469  0.02779  Biso   1.000  O
  O25      1.0000 0.88239  0.76671  0.02678  Biso   1.000  O
  O26      1.0000 0.26642  0.38249  0.02798  Biso   1.000  O
  O27      1.0000 0.88260  0.25046  0.54204  Biso   1.000  O
  O28      1.0000 0.26502  0.24944  0.54406  Biso   1.000  O
  O29      1.0000 0.26401  0.25066  0.15982  Biso   1.000  O
  O30      1.0000 0.75057  0.38249  0.54304  Biso   1.000  O
  O31      1.0000 0.74955  0.76490  0.15962  Biso   1.000  O
  O32      1.0000 0.75076  0.76389  0.54366  Biso   1.000  O
  O33      1.0000 0.34620  0.84609  0.01291  Biso   1.000  O
  O34      1.0000 0.40517  0.90505  0.95395  Biso   1.000  O
  O35      1.0000 0.73088  0.24035  0.62344  Biso   1.000  O
  O36      1.0000 0.68153  0.18141  0.67759  Biso   1.000  O
  O37      1.0000 0.23809  0.73797  0.12103  Biso   1.000  O
  O38      1.0000 0.17913  0.67901  0.17999  Biso   1.000  O
  O39      1.0000 0.84380  0.34369  0.51532  Biso   1.000  O
  O40      1.0000 0.90277  0.40265  0.45636  Biso   1.000  O
  O41      1.0000 0.73589  0.84588  0.62324  Biso   1.000  O
  O42      1.0000 0.68201  0.90458  0.67710  Biso   1.000  O
  O43      1.0000 0.34600  0.23579  0.01311  Biso   1.000  O
  O44      1.0000 0.40468  0.18189  0.95443  Biso   1.000  O
  O45      1.0000 0.84360  0.73817  0.51552  Biso   1.000  O
  O46      1.0000 0.90228  0.67949  0.45684  Biso   1.000  O
  O47      1.0000 0.23829  0.34350  0.12083  Biso   1.000  O
  O48      1.0000 0.17961  0.40218  0.17951  Biso   1.000  O
  O49      1.0000 0.34581  0.23598  0.62304  Biso   1.000  O
  O50      1.0000 0.40448  0.18210  0.67690  Biso   1.000  O
  O51      1.0000 0.73609  0.84569  0.01331  Biso   1.000  O
  O52      1.0000 0.68221  0.90437  0.95463  Biso   1.000  O
  O53      1.0000 0.23849  0.34329  0.51572  Biso   1.000  O
  O54      1.0000 0.17981  0.40197  0.45704  Biso   1.000  O
  O55      1.0000 0.84340  0.73838  0.12063  Biso   1.000  O
  O56      1.0000 0.90208  0.67970  0.17931  Biso   1.000  O
  O57      1.0000 0.42627  0.92776  0.86930  Biso   1.000  O
  O58      1.0000 0.59773  0.92582  0.70029  Biso   1.000  O
  O59      1.0000 0.42669  0.09635  0.69993  Biso   1.000  O
  O60      1.0000 0.42787  0.92615  0.99479  Biso   1.000  O
  O61      1.0000 0.42593  0.09761  0.99428  Biso   1.000  O
  O62      1.0000 0.59646  0.92657  0.99515  Biso   1.000  O
  O63      1.0000 0.59688  0.22225  0.69869  Biso   1.000  O
  O64      1.0000 0.42787  0.22174  0.87015  Biso   1.000  O
  O65      1.0000 0.42751  0.22261  0.69911  Biso   1.000  O
  O66      1.0000 0.72236  0.09677  0.70029  Biso   1.000  O
  O67      1.0000 0.72186  0.92777  0.69835  Biso   1.000  O
  O68      1.0000 0.72272  0.92740  0.86888  Biso   1.000  O
  O69      1.0000 0.15803  0.65630  0.26464  Biso   1.000  O
  O70      1.0000 0.98657  0.65825  0.43365  Biso   1.000  O
  O71      1.0000 0.15761  0.48772  0.43401  Biso   1.000  O
  O72      1.0000 0.15642  0.65791  0.13916  Biso   1.000  O
  O73      1.0000 0.15837  0.48646  0.13966  Biso   1.000  O
  O74      1.0000 0.98783  0.65749  0.13880  Biso   1.000  O
  O75      1.0000 0.98741  0.36182  0.43526  Biso   1.000  O
  O76      1.0000 0.15642  0.36233  0.26379  Biso   1.000  O
  O77      1.0000 0.15678  0.36146  0.43483  Biso   1.000  O
  O78      1.0000 0.86193  0.48730  0.43365  Biso   1.000  O
  O79      1.0000 0.86243  0.65630  0.43560  Biso   1.000  O
  O80      1.0000 0.86157  0.65667  0.26506  Biso   1.000  O
  O81      1.0000 0.54335  0.04323  0.81577  Biso   1.000  O
  O82      1.0000 0.04095  0.54083  0.31818  Biso   1.000  O
  O83      1.0000 0.33424  0.12480  0.61957  Biso   1.000  O
  O84      1.0000 0.34234  0.36216  0.61627  Biso   1.000  O
  O85      1.0000 0.24525  0.45924  0.51919  Biso   1.000  O
  O86      1.0000 0.23715  0.22189  0.52248  Biso   1.000  O
  O87      1.0000 0.34359  0.36097  0.89717  Biso   1.000  O
  O88      1.0000 0.24511  0.45944  0.99565  Biso   1.000  O
  O89      1.0000 0.61994  0.83905  0.62083  Biso   1.000  O
  O90      1.0000 0.71842  0.74058  0.52234  Biso   1.000  O
  O91      1.0000 0.34038  0.84210  0.13849  Biso   1.000  O
  O92      1.0000 0.62013  0.83892  0.13950  Biso   1.000  O
  O93      1.0000 0.71822  0.45945  0.52115  Biso   1.000  O
  O94      1.0000 0.71722  0.74184  0.23658  Biso   1.000  O
  O95      1.0000 0.33437  0.12462  0.13829  Biso   1.000  O
  O96      1.0000 0.23589  0.22310  0.23678  Biso   1.000  O
  O97      1.0000 0.86107  0.84347  0.61641  Biso   1.000  O
  O98      1.0000 0.95955  0.74499  0.51793  Biso   1.000  O
  O99      1.0000 0.95476  0.22289  0.51931  Biso   1.000  O
  O100     1.0000 0.86227  0.84223  0.89736  Biso   1.000  O
  O101     1.0000 0.95935  0.74514  0.99444  Biso   1.000  O
  O102     1.0000 0.85646  0.12459  0.61761  Biso   1.000  O
  O103     1.0000 0.24391  0.74197  0.99545  Biso   1.000  O
  O104     1.0000 0.34221  0.84027  0.89715  Biso   1.000  O
  O105     1.0000 0.24208  0.74380  0.23680  Biso   1.000  O
  O106     1.0000 0.61992  0.36115  0.61945  Biso   1.000  O
