data_image0
_cell_length_a       18.2486
_cell_length_b       18.2486
_cell_length_c       18.2486
_cell_angle_alpha    60
_cell_angle_beta     60
_cell_angle_gamma    60

_symmetry_space_group_name_H-M    "P 1"
_symmetry_int_tables_number       1

loop_
  _symmetry_equiv_pos_as_xyz
  'x, y, z'

loop_
  _atom_site_label
  _atom_site_occupancy
  _atom_site_fract_x
  _atom_site_fract_y
  _atom_site_fract_z
  _atom_site_thermal_displace_type
  _atom_site_B_iso_or_equiv
  _atom_site_type_symbol
  C1       1.0000 0.11962  0.29346  0.29346  Biso   1.000  C
  C2       1.0000 0.70654  0.88038  0.70654  Biso   1.000  C
  C3       1.0000 0.29346  0.29346  0.11962  Biso   1.000  C
  C4       1.0000 0.29346  0.29346  0.29346  Biso   1.000  C
  C5       1.0000 0.88038  0.70654  0.70654  Biso   1.000  C
  C6       1.0000 0.29346  0.11962  0.29346  Biso   1.000  C
  C7       1.0000 0.70654  0.70654  0.88038  Biso   1.000  C
  C8       1.0000 0.70654  0.70654  0.70654  Biso   1.000  C
  C9       1.0000 0.15060  0.45640  0.45640  Biso   1.000  C
  C10      1.0000 0.84940  0.54360  0.06340  Biso   1.000  C
  C11      1.0000 0.45640  0.93660  0.45640  Biso   1.000  C
  C12      1.0000 0.54360  0.84940  0.06340  Biso   1.000  C
  C13      1.0000 0.84940  0.54360  0.54360  Biso   1.000  C
  C14      1.0000 0.45640  0.15060  0.93660  Biso   1.000  C
  C15      1.0000 0.45640  0.93660  0.15060  Biso   1.000  C
  C16      1.0000 0.06340  0.54360  0.54360  Biso   1.000  C
  C17      1.0000 0.45640  0.15060  0.45640  Biso   1.000  C
  C18      1.0000 0.93660  0.45640  0.45640  Biso   1.000  C
  C19      1.0000 0.93660  0.15060  0.45640  Biso   1.000  C
  C20      1.0000 0.45640  0.45640  0.15060  Biso   1.000  C
  C21      1.0000 0.06340  0.84940  0.54360  Biso   1.000  C
  C22      1.0000 0.06340  0.54360  0.84940  Biso   1.000  C
  C23      1.0000 0.54360  0.06340  0.84940  Biso   1.000  C
  C24      1.0000 0.54360  0.84940  0.54360  Biso   1.000  C
  C25      1.0000 0.15060  0.93660  0.45640  Biso   1.000  C
  C26      1.0000 0.54360  0.06340  0.54360  Biso   1.000  C
  C27      1.0000 0.93660  0.45640  0.15060  Biso   1.000  C
  C28      1.0000 0.84940  0.06340  0.54360  Biso   1.000  C
  C29      1.0000 0.45640  0.45640  0.93660  Biso   1.000  C
  C30      1.0000 0.54360  0.54360  0.06340  Biso   1.000  C
  C31      1.0000 0.15060  0.45640  0.93660  Biso   1.000  C
  C32      1.0000 0.54360  0.54360  0.84940  Biso   1.000  C
  C33      1.0000 0.89030  0.60970  0.60970  Biso   1.000  C
  C34      1.0000 0.55390  0.55390  0.94610  Biso   1.000  C
  C35      1.0000 0.03650  0.91130  0.52610  Biso   1.000  C
  C36      1.0000 0.47390  0.96350  0.08870  Biso   1.000  C
  C37      1.0000 0.91130  0.52610  0.03650  Biso   1.000  C
  C38      1.0000 0.47390  0.47390  0.08870  Biso   1.000  C
  C39      1.0000 0.96350  0.08870  0.47390  Biso   1.000  C
  C40      1.0000 0.39030  0.10970  0.39030  Biso   1.000  C
  C41      1.0000 0.44610  0.05390  0.44610  Biso   1.000  C
  C42      1.0000 0.52610  0.52610  0.03650  Biso   1.000  C
  C43      1.0000 0.52610  0.91130  0.03650  Biso   1.000  C
  C44      1.0000 0.10970  0.10970  0.39030  Biso   1.000  C
  C45      1.0000 0.05390  0.44610  0.44610  Biso   1.000  C
  C46      1.0000 0.55390  0.94610  0.55390  Biso   1.000  C
  C47      1.0000 0.44610  0.05390  0.05390  Biso   1.000  C
  C48      1.0000 0.94610  0.55390  0.55390  Biso   1.000  C
  C49      1.0000 0.94610  0.55390  0.94610  Biso   1.000  C
  C50      1.0000 0.39030  0.39030  0.10970  Biso   1.000  C
  C51      1.0000 0.03650  0.52610  0.52610  Biso   1.000  C
  C52      1.0000 0.08870  0.47390  0.96350  Biso   1.000  C
  C53      1.0000 0.47390  0.96350  0.47390  Biso   1.000  C
  C54      1.0000 0.47390  0.47390  0.96350  Biso   1.000  C
  C55      1.0000 0.60970  0.89030  0.60970  Biso   1.000  C
  C56      1.0000 0.94610  0.94610  0.55390  Biso   1.000  C
  C57      1.0000 0.05390  0.05390  0.44610  Biso   1.000  C
  C58      1.0000 0.39030  0.10970  0.10970  Biso   1.000  C
  C59      1.0000 0.03650  0.52610  0.91130  Biso   1.000  C
  C60      1.0000 0.44610  0.44610  0.05390  Biso   1.000  C
  C61      1.0000 0.10970  0.39030  0.39030  Biso   1.000  C
  C62      1.0000 0.89030  0.89030  0.60970  Biso   1.000  C
  C63      1.0000 0.60970  0.89030  0.89030  Biso   1.000  C
  C64      1.0000 0.96350  0.47390  0.47390  Biso   1.000  C
  C65      1.0000 0.89030  0.60970  0.89030  Biso   1.000  C
  C66      1.0000 0.08870  0.47390  0.47390  Biso   1.000  C
  C67      1.0000 0.91130  0.52610  0.52610  Biso   1.000  C
  C68      1.0000 0.47390  0.08870  0.47390  Biso   1.000  C
  C69      1.0000 0.47390  0.08870  0.96350  Biso   1.000  C
  C70      1.0000 0.08870  0.96350  0.47390  Biso   1.000  C
  C71      1.0000 0.10970  0.39030  0.10970  Biso   1.000  C
  C72      1.0000 0.96350  0.47390  0.08870  Biso   1.000  C
  C73      1.0000 0.52610  0.52610  0.91130  Biso   1.000  C
  C74      1.0000 0.60970  0.60970  0.89030  Biso   1.000  C
  C75      1.0000 0.52610  0.91130  0.52610  Biso   1.000  C
  C76      1.0000 0.91130  0.03650  0.52610  Biso   1.000  C
  C77      1.0000 0.52610  0.03650  0.91130  Biso   1.000  C
  C78      1.0000 0.05390  0.44610  0.05390  Biso   1.000  C
  C79      1.0000 0.55390  0.94610  0.94610  Biso   1.000  C
  C80      1.0000 0.52610  0.03650  0.52610  Biso   1.000  C
  C81      1.0000 0.63380  0.80300  0.92940  Biso   1.000  C
  C82      1.0000 0.07060  0.19700  0.36620  Biso   1.000  C
  C83      1.0000 0.80300  0.63380  0.63380  Biso   1.000  C
  C84      1.0000 0.80300  0.92940  0.63380  Biso   1.000  C
  C85      1.0000 0.36620  0.07060  0.19700  Biso   1.000  C
  C86      1.0000 0.07060  0.36620  0.19700  Biso   1.000  C
  C87      1.0000 0.63380  0.92940  0.63380  Biso   1.000  C
  C88      1.0000 0.63380  0.80300  0.63380  Biso   1.000  C
  C89      1.0000 0.36620  0.36620  0.19700  Biso   1.000  C
  C90      1.0000 0.36620  0.07060  0.36620  Biso   1.000  C
  C91      1.0000 0.75000  0.75000  0.75000  Biso   1.000  C
  C92      1.0000 0.80300  0.63380  0.92940  Biso   1.000  C
  C93      1.0000 0.92940  0.80300  0.63380  Biso   1.000  C
  C94      1.0000 0.36620  0.19700  0.36620  Biso   1.000  C
  C95      1.0000 0.63380  0.63380  0.80300  Biso   1.000  C
  C96      1.0000 0.19700  0.36620  0.07060  Biso   1.000  C
  C97      1.0000 0.63380  0.63380  0.92940  Biso   1.000  C
  C98      1.0000 0.36620  0.36620  0.07060  Biso   1.000  C
  C99      1.0000 0.63380  0.92940  0.80300  Biso   1.000  C
  C100     1.0000 0.19700  0.07060  0.36620  Biso   1.000  C
  C101     1.0000 0.36620  0.19700  0.07060  Biso   1.000  C
  C102     1.0000 0.92940  0.63380  0.80300  Biso   1.000  C
  C103     1.0000 0.25000  0.25000  0.25000  Biso   1.000  C
  C104     1.0000 0.19700  0.36620  0.36620  Biso   1.000  C
  C105     1.0000 0.92940  0.63380  0.63380  Biso   1.000  C
  C106     1.0000 0.07060  0.36620  0.36620  Biso   1.000  C
  O1       1.0000 0.92543  0.92438  0.06694  Biso   1.000  O
  O2       1.0000 0.75281  0.09701  0.06694  Biso   1.000  O
  O3       1.0000 0.92543  0.09701  0.06694  Biso   1.000  O
  O4       1.0000 0.92543  0.09701  0.89431  Biso   1.000  O
  O5       1.0000 0.51447  0.50808  0.47801  Biso   1.000  O
  O6       1.0000 0.33650  0.68605  0.47801  Biso   1.000  O
  O7       1.0000 0.33650  0.50808  0.65598  Biso   1.000  O
  O8       1.0000 0.33650  0.50808  0.47801  Biso   1.000  O
  O9       1.0000 0.69803  0.65273  0.31647  Biso   1.000  O
  O10      1.0000 0.48115  0.86961  0.31647  Biso   1.000  O
  O11      1.0000 0.17496  0.34654  0.83954  Biso   1.000  O
  O12      1.0000 0.17496  0.34654  0.62266  Biso   1.000  O
  O13      1.0000 0.69803  0.34654  0.31647  Biso   1.000  O
  O14      1.0000 0.48115  0.34654  0.31647  Biso   1.000  O
  O15      1.0000 0.17496  0.86961  0.62266  Biso   1.000  O
  O16      1.0000 0.17496  0.65273  0.83954  Biso   1.000  O
  O17      1.0000 0.69803  0.34654  0.62266  Biso   1.000  O
  O18      1.0000 0.48115  0.34654  0.83954  Biso   1.000  O
  O19      1.0000 0.17496  0.65273  0.31647  Biso   1.000  O
  O20      1.0000 0.17496  0.86961  0.31647  Biso   1.000  O
  O21      1.0000 0.71365  0.76783  0.25111  Biso   1.000  O
  O22      1.0000 0.67147  0.71451  0.29886  Biso   1.000  O
  O23      1.0000 0.59626  0.88523  0.25111  Biso   1.000  O
  O24      1.0000 0.54293  0.84304  0.29886  Biso   1.000  O
  O25      1.0000 0.10960  0.28118  0.85516  Biso   1.000  O
  O26      1.0000 0.15736  0.32893  0.81297  Biso   1.000  O
  O27      1.0000 0.10960  0.28118  0.73776  Biso   1.000  O
  O28      1.0000 0.15736  0.32893  0.68444  Biso   1.000  O
  O29      1.0000 0.71365  0.28118  0.25111  Biso   1.000  O
  O30      1.0000 0.67147  0.32893  0.29886  Biso   1.000  O
  O31      1.0000 0.59626  0.28118  0.25111  Biso   1.000  O
  O32      1.0000 0.54293  0.32893  0.29886  Biso   1.000  O
  O33      1.0000 0.10960  0.88523  0.73776  Biso   1.000  O
  O34      1.0000 0.15736  0.84304  0.68444  Biso   1.000  O
  O35      1.0000 0.10960  0.76783  0.85516  Biso   1.000  O
  O36      1.0000 0.15736  0.71451  0.81297  Biso   1.000  O
  O37      1.0000 0.71365  0.28118  0.73776  Biso   1.000  O
  O38      1.0000 0.67147  0.32893  0.68444  Biso   1.000  O
  O39      1.0000 0.59626  0.28118  0.85516  Biso   1.000  O
  O40      1.0000 0.54293  0.32893  0.81297  Biso   1.000  O
  O41      1.0000 0.10960  0.76783  0.25111  Biso   1.000  O
  O42      1.0000 0.15736  0.71451  0.29886  Biso   1.000  O
  O43      1.0000 0.10960  0.88523  0.25111  Biso   1.000  O
  O44      1.0000 0.15736  0.84304  0.29886  Biso   1.000  O
  O45      1.0000 0.68818  0.85976  0.21788  Biso   1.000  O
  O46      1.0000 0.58452  0.75609  0.32155  Biso   1.000  O
  O47      1.0000 0.52343  0.69501  0.38263  Biso   1.000  O
  O48      1.0000 0.74469  0.91627  0.16137  Biso   1.000  O
  O49      1.0000 0.07637  0.24795  0.82969  Biso   1.000  O
  O50      1.0000 0.18004  0.35161  0.72602  Biso   1.000  O
  O51      1.0000 0.24112  0.41270  0.66494  Biso   1.000  O
  O52      1.0000 0.01987  0.19144  0.88620  Biso   1.000  O
  O53      1.0000 0.68818  0.24795  0.21788  Biso   1.000  O
  O54      1.0000 0.58452  0.35161  0.32155  Biso   1.000  O
  O55      1.0000 0.52343  0.41270  0.38263  Biso   1.000  O
  O56      1.0000 0.74469  0.19144  0.16137  Biso   1.000  O
  O57      1.0000 0.07637  0.85976  0.82969  Biso   1.000  O
  O58      1.0000 0.18004  0.75609  0.72602  Biso   1.000  O
  O59      1.0000 0.24112  0.69501  0.66494  Biso   1.000  O
  O60      1.0000 0.01987  0.91627  0.88620  Biso   1.000  O
  O61      1.0000 0.68818  0.24795  0.82969  Biso   1.000  O
  O62      1.0000 0.58452  0.35161  0.72602  Biso   1.000  O
  O63      1.0000 0.52343  0.41270  0.66494  Biso   1.000  O
  O64      1.0000 0.74469  0.19144  0.88620  Biso   1.000  O
  O65      1.0000 0.07637  0.85976  0.21788  Biso   1.000  O
  O66      1.0000 0.18004  0.75609  0.32155  Biso   1.000  O
  O67      1.0000 0.24112  0.69501  0.38263  Biso   1.000  O
  O68      1.0000 0.01987  0.91627  0.16137  Biso   1.000  O
  O69      1.0000 0.56243  0.60786  0.40670  Biso   1.000  O
  O70      1.0000 0.82408  0.87946  0.14008  Biso   1.000  O
  O71      1.0000 0.43628  0.73401  0.40670  Biso   1.000  O
  O72      1.0000 0.70788  0.99565  0.14008  Biso   1.000  O
  O73      1.0000 0.26520  0.43677  0.70394  Biso   1.000  O
  O74      1.0000 0.99858  0.17015  0.96559  Biso   1.000  O
  O75      1.0000 0.26520  0.43677  0.57779  Biso   1.000  O
  O76      1.0000 0.99858  0.17015  0.84939  Biso   1.000  O
  O77      1.0000 0.56243  0.43677  0.40670  Biso   1.000  O
  O78      1.0000 0.82408  0.17015  0.14008  Biso   1.000  O
  O79      1.0000 0.43628  0.43677  0.40670  Biso   1.000  O
  O80      1.0000 0.70788  0.17015  0.14008  Biso   1.000  O
  O81      1.0000 0.26520  0.73401  0.57779  Biso   1.000  O
  O82      1.0000 0.99858  0.99565  0.84939  Biso   1.000  O
  O83      1.0000 0.26520  0.60786  0.70394  Biso   1.000  O
  O84      1.0000 0.99858  0.87946  0.96559  Biso   1.000  O
  O85      1.0000 0.56243  0.43677  0.57779  Biso   1.000  O
  O86      1.0000 0.82408  0.17015  0.84939  Biso   1.000  O
  O87      1.0000 0.43628  0.43677  0.70394  Biso   1.000  O
  O88      1.0000 0.70788  0.17015  0.96559  Biso   1.000  O
  O89      1.0000 0.26520  0.60786  0.40670  Biso   1.000  O
  O90      1.0000 0.99858  0.87946  0.14008  Biso   1.000  O
  O91      1.0000 0.26520  0.73401  0.40670  Biso   1.000  O
  O92      1.0000 0.99858  0.99565  0.14008  Biso   1.000  O
  O93      1.0000 0.38485  0.55643  0.52636  Biso   1.000  O
  O94      1.0000 0.88228  0.05385  0.02378  Biso   1.000  O
