data_image0
_cell_length_a       18.2486
_cell_length_b       18.2486
_cell_length_c       18.2486
_cell_angle_alpha    60
_cell_angle_beta     60
_cell_angle_gamma    60

loop_
  _atom_site_label
  _atom_site_occupancy
  _atom_site_fract_x
  _atom_site_fract_y
  _atom_site_fract_z
  _atom_site_thermal_displace_type
  _atom_site_B_iso_or_equiv
  _atom_site_type_symbol
  C1       1.0000 0.11962  0.29346  0.29346  Biso   1.000  C
  C2       1.0000 0.70654  0.88038  0.70654  Biso   1.000  C
  C3       1.0000 0.29346  0.29346  0.11962  Biso   1.000  C
  C4       1.0000 0.29346  0.29346  0.29346  Biso   1.000  C
  C5       1.0000 0.88038  0.70654  0.70654  Biso   1.000  C
  C6       1.0000 0.29346  0.11962  0.29346  Biso   1.000  C
  C7       1.0000 0.70654  0.70654  0.88038  Biso   1.000  C
  C8       1.0000 0.70654  0.70654  0.70654  Biso   1.000  C
  C9       1.0000 0.15060  0.45640  0.45640  Biso   1.000  C
  C10      1.0000 0.84940  0.54360  0.06340  Biso   1.000  C
  C11      1.0000 0.45640  0.93660  0.45640  Biso   1.000  C
  C12      1.0000 0.54360  0.84940  0.06340  Biso   1.000  C
  C13      1.0000 0.84940  0.54360  0.54360  Biso   1.000  C
  C14      1.0000 0.45640  0.15060  0.93660  Biso   1.000  C
  C15      1.0000 0.45640  0.93660  0.15060  Biso   1.000  C
  C16      1.0000 0.06340  0.54360  0.54360  Biso   1.000  C
  C17      1.0000 0.45640  0.15060  0.45640  Biso   1.000  C
  C18      1.0000 0.93660  0.45640  0.45640  Biso   1.000  C
  C19      1.0000 0.93660  0.15060  0.45640  Biso   1.000  C
  C20      1.0000 0.45640  0.45640  0.15060  Biso   1.000  C
  C21      1.0000 0.06340  0.84940  0.54360  Biso   1.000  C
  C22      1.0000 0.06340  0.54360  0.84940  Biso   1.000  C
  C23      1.0000 0.54360  0.06340  0.84940  Biso   1.000  C
  C24      1.0000 0.54360  0.84940  0.54360  Biso   1.000  C
  C25      1.0000 0.15060  0.93660  0.45640  Biso   1.000  C
  C26      1.0000 0.54360  0.06340  0.54360  Biso   1.000  C
  C27      1.0000 0.93660  0.45640  0.15060  Biso   1.000  C
  C28      1.0000 0.84940  0.06340  0.54360  Biso   1.000  C
  C29      1.0000 0.45640  0.45640  0.93660  Biso   1.000  C
  C30      1.0000 0.54360  0.54360  0.06340  Biso   1.000  C
  C31      1.0000 0.15060  0.45640  0.93660  Biso   1.000  C
  C32      1.0000 0.54360  0.54360  0.84940  Biso   1.000  C
  C33      1.0000 0.89030  0.60970  0.60970  Biso   1.000  C
  C34      1.0000 0.55390  0.55390  0.94610  Biso   1.000  C
  C35      1.0000 0.03650  0.91130  0.52610  Biso   1.000  C
  C36      1.0000 0.47390  0.96350  0.08870  Biso   1.000  C
  C37      1.0000 0.91130  0.52610  0.03650  Biso   1.000  C
  C38      1.0000 0.47390  0.47390  0.08870  Biso   1.000  C
  C39      1.0000 0.96350  0.08870  0.47390  Biso   1.000  C
  C40      1.0000 0.39030  0.10970  0.39030  Biso   1.000  C
  C41      1.0000 0.44610  0.05390  0.44610  Biso   1.000  C
  C42      1.0000 0.52610  0.52610  0.03650  Biso   1.000  C
  C43      1.0000 0.52610  0.91130  0.03650  Biso   1.000  C
  C44      1.0000 0.10970  0.10970  0.39030  Biso   1.000  C
  C45      1.0000 0.05390  0.44610  0.44610  Biso   1.000  C
  C46      1.0000 0.55390  0.94610  0.55390  Biso   1.000  C
  C47      1.0000 0.44610  0.05390  0.05390  Biso   1.000  C
  C48      1.0000 0.94610  0.55390  0.55390  Biso   1.000  C
  C49      1.0000 0.94610  0.55390  0.94610  Biso   1.000  C
  C50      1.0000 0.39030  0.39030  0.10970  Biso   1.000  C
  C51      1.0000 0.03650  0.52610  0.52610  Biso   1.000  C
  C52      1.0000 0.08870  0.47390  0.96350  Biso   1.000  C
  C53      1.0000 0.47390  0.96350  0.47390  Biso   1.000  C
  C54      1.0000 0.47390  0.47390  0.96350  Biso   1.000  C
  C55      1.0000 0.60970  0.89030  0.60970  Biso   1.000  C
  C56      1.0000 0.94610  0.94610  0.55390  Biso   1.000  C
  C57      1.0000 0.05390  0.05390  0.44610  Biso   1.000  C
  C58      1.0000 0.39030  0.10970  0.10970  Biso   1.000  C
  C59      1.0000 0.03650  0.52610  0.91130  Biso   1.000  C
  C60      1.0000 0.44610  0.44610  0.05390  Biso   1.000  C
  C61      1.0000 0.10970  0.39030  0.39030  Biso   1.000  C
  C62      1.0000 0.89030  0.89030  0.60970  Biso   1.000  C
  C63      1.0000 0.60970  0.89030  0.89030  Biso   1.000  C
  C64      1.0000 0.96350  0.47390  0.47390  Biso   1.000  C
  C65      1.0000 0.89030  0.60970  0.89030  Biso   1.000  C
  C66      1.0000 0.08870  0.47390  0.47390  Biso   1.000  C
  C67      1.0000 0.91130  0.52610  0.52610  Biso   1.000  C
  C68      1.0000 0.47390  0.08870  0.47390  Biso   1.000  C
  C69      1.0000 0.47390  0.08870  0.96350  Biso   1.000  C
  C70      1.0000 0.08870  0.96350  0.47390  Biso   1.000  C
  C71      1.0000 0.10970  0.39030  0.10970  Biso   1.000  C
  C72      1.0000 0.96350  0.47390  0.08870  Biso   1.000  C
  C73      1.0000 0.52610  0.52610  0.91130  Biso   1.000  C
  C74      1.0000 0.60970  0.60970  0.89030  Biso   1.000  C
  C75      1.0000 0.52610  0.91130  0.52610  Biso   1.000  C
  C76      1.0000 0.91130  0.03650  0.52610  Biso   1.000  C
  C77      1.0000 0.52610  0.03650  0.91130  Biso   1.000  C
  C78      1.0000 0.05390  0.44610  0.05390  Biso   1.000  C
  C79      1.0000 0.55390  0.94610  0.94610  Biso   1.000  C
  C80      1.0000 0.52610  0.03650  0.52610  Biso   1.000  C
  C81      1.0000 0.63380  0.80300  0.92940  Biso   1.000  C
  C82      1.0000 0.07060  0.19700  0.36620  Biso   1.000  C
  C83      1.0000 0.80300  0.63380  0.63380  Biso   1.000  C
  C84      1.0000 0.80300  0.92940  0.63380  Biso   1.000  C
  C85      1.0000 0.36620  0.07060  0.19700  Biso   1.000  C
  C86      1.0000 0.07060  0.36620  0.19700  Biso   1.000  C
  C87      1.0000 0.63380  0.92940  0.63380  Biso   1.000  C
  C88      1.0000 0.63380  0.80300  0.63380  Biso   1.000  C
  C89      1.0000 0.36620  0.36620  0.19700  Biso   1.000  C
  C90      1.0000 0.36620  0.07060  0.36620  Biso   1.000  C
  C91      1.0000 0.75000  0.75000  0.75000  Biso   1.000  C
  C92      1.0000 0.80300  0.63380  0.92940  Biso   1.000  C
  C93      1.0000 0.92940  0.80300  0.63380  Biso   1.000  C
  C94      1.0000 0.36620  0.19700  0.36620  Biso   1.000  C
  C95      1.0000 0.63380  0.63380  0.80300  Biso   1.000  C
  C96      1.0000 0.19700  0.36620  0.07060  Biso   1.000  C
  C97      1.0000 0.63380  0.63380  0.92940  Biso   1.000  C
  C98      1.0000 0.36620  0.36620  0.07060  Biso   1.000  C
  C99      1.0000 0.63380  0.92940  0.80300  Biso   1.000  C
  C100     1.0000 0.19700  0.07060  0.36620  Biso   1.000  C
  C101     1.0000 0.36620  0.19700  0.07060  Biso   1.000  C
  C102     1.0000 0.92940  0.63380  0.80300  Biso   1.000  C
  C103     1.0000 0.25000  0.25000  0.25000  Biso   1.000  C
  C104     1.0000 0.19700  0.36620  0.36620  Biso   1.000  C
  C105     1.0000 0.92940  0.63380  0.63380  Biso   1.000  C
  C106     1.0000 0.07060  0.36620  0.36620  Biso   1.000  C
  O1       1.0000 0.92281  0.92174  0.06675  Biso   1.000  O
  O2       1.0000 0.09423  0.92169  0.89533  Biso   1.000  O
  O3       1.0000 0.09428  0.75027  0.06675  Biso   1.000  O
  O4       1.0000 0.09423  0.92169  0.06680  Biso   1.000  O
  O5       1.0000 0.68536  0.33056  0.48645  Biso   1.000  O
  O6       1.0000 0.51394  0.33061  0.65787  Biso   1.000  O
  O7       1.0000 0.51389  0.50203  0.48645  Biso   1.000  O
  O8       1.0000 0.51393  0.33061  0.48640  Biso   1.000  O
  O9       1.0000 0.76552  0.10022  0.86802  Biso   1.000  O
  O10      1.0000 0.76451  0.72277  0.25528  Biso   1.000  O
  O11      1.0000 0.76570  0.10084  0.25429  Biso   1.000  O
  O12      1.0000 0.89550  0.09923  0.73803  Biso   1.000  O
  O13      1.0000 0.28277  0.10122  0.73703  Biso   1.000  O
  O14      1.0000 0.28178  0.72296  0.73822  Biso   1.000  O
  O15      1.0000 0.28354  0.58219  0.25507  Biso   1.000  O
  O16      1.0000 0.89529  0.58119  0.25706  Biso   1.000  O
  O17      1.0000 0.28415  0.58236  0.86801  Biso   1.000  O
  O18      1.0000 0.28255  0.72298  0.25606  Biso   1.000  O
  O19      1.0000 0.28455  0.09944  0.86781  Biso   1.000  O
  O20      1.0000 0.89548  0.09846  0.25666  Biso   1.000  O
  O21      1.0000 0.84265  0.15208  0.68519  Biso   1.000  O
  O22      1.0000 0.84365  0.52955  0.30870  Biso   1.000  O
  O23      1.0000 0.84246  0.15148  0.30969  Biso   1.000  O
  O24      1.0000 0.71267  0.15306  0.81517  Biso   1.000  O
  O25      1.0000 0.33618  0.15108  0.81617  Biso   1.000  O
  O26      1.0000 0.33717  0.52934  0.81498  Biso   1.000  O
  O27      1.0000 0.33540  0.65932  0.30891  Biso   1.000  O
  O28      1.0000 0.71288  0.66032  0.30692  Biso   1.000  O
  O29      1.0000 0.33480  0.65913  0.68520  Biso   1.000  O
  O30      1.0000 0.33639  0.52934  0.30792  Biso   1.000  O
  O31      1.0000 0.33440  0.15286  0.68540  Biso   1.000  O
  O32      1.0000 0.71268  0.15386  0.30731  Biso   1.000  O
  O33      1.0000 0.85731  0.07293  0.82982  Biso   1.000  O
  O34      1.0000 0.91535  0.01488  0.88787  Biso   1.000  O
  O35      1.0000 0.25625  0.68479  0.22877  Biso   1.000  O
  O36      1.0000 0.18743  0.74281  0.15995  Biso   1.000  O
  O37      1.0000 0.75086  0.17937  0.72338  Biso   1.000  O
  O38      1.0000 0.69282  0.23742  0.66533  Biso   1.000  O
  O39      1.0000 0.36269  0.56754  0.33521  Biso   1.000  O
  O40      1.0000 0.42074  0.50949  0.39326  Biso   1.000  O
  O41      1.0000 0.85710  0.07314  0.22897  Biso   1.000  O
  O42      1.0000 0.91488  0.01535  0.16042  Biso   1.000  O
  O43      1.0000 0.25645  0.67376  0.82962  Biso   1.000  O
  O44      1.0000 0.18790  0.74234  0.88740  Biso   1.000  O
  O45      1.0000 0.75106  0.17918  0.33501  Biso   1.000  O
  O46      1.0000 0.69329  0.23695  0.39278  Biso   1.000  O
  O47      1.0000 0.36250  0.56772  0.72358  Biso   1.000  O
  O48      1.0000 0.42027  0.50996  0.66581  Biso   1.000  O
  O49      1.0000 0.85691  0.67358  0.22916  Biso   1.000  O
  O50      1.0000 0.91468  0.74214  0.16062  Biso   1.000  O
  O51      1.0000 0.25665  0.07333  0.82943  Biso   1.000  O
  O52      1.0000 0.18810  0.01556  0.88720  Biso   1.000  O
  O53      1.0000 0.75126  0.56793  0.33481  Biso   1.000  O
  O54      1.0000 0.69349  0.51016  0.39258  Biso   1.000  O
  O55      1.0000 0.36230  0.17897  0.72378  Biso   1.000  O
  O56      1.0000 0.42007  0.23674  0.66601  Biso   1.000  O
  O57      1.0000 0.87515  0.99253  0.97120  Biso   1.000  O
  O58      1.0000 0.87565  0.99444  0.13759  Biso   1.000  O
  O59      1.0000 0.87480  0.82656  0.13795  Biso   1.000  O
  O60      1.0000 0.99868  0.99411  0.84767  Biso   1.000  O
  O61      1.0000 0.16507  0.82532  0.84816  Biso   1.000  O
  O62      1.0000 0.16543  0.99370  0.84731  Biso   1.000  O
  O63      1.0000 0.16507  0.70261  0.13917  Biso   1.000  O
  O64      1.0000 0.16699  0.70311  0.97037  Biso   1.000  O
  O65      1.0000 0.99910  0.70225  0.13876  Biso   1.000  O
  O66      1.0000 0.16666  0.82614  0.13759  Biso   1.000  O
  O67      1.0000 0.99786  0.99252  0.13951  Biso   1.000  O
  O68      1.0000 0.16624  0.99288  0.97162  Biso   1.000  O
  O69      1.0000 0.73302  0.25977  0.58200  Biso   1.000  O
  O70      1.0000 0.73252  0.25786  0.41561  Biso   1.000  O
  O71      1.0000 0.73337  0.42574  0.41526  Biso   1.000  O
  O72      1.0000 0.60949  0.25819  0.70554  Biso   1.000  O
  O73      1.0000 0.44310  0.42698  0.70504  Biso   1.000  O
  O74      1.0000 0.44274  0.25860  0.70589  Biso   1.000  O
  O75      1.0000 0.44310  0.54969  0.41403  Biso   1.000  O
  O76      1.0000 0.44118  0.54919  0.58283  Biso   1.000  O
  O77      1.0000 0.60907  0.55005  0.41445  Biso   1.000  O
  O78      1.0000 0.44151  0.42616  0.41561  Biso   1.000  O
  O79      1.0000 0.61031  0.25978  0.41369  Biso   1.000  O
  O80      1.0000 0.44193  0.25942  0.58159  Biso   1.000  O
  O81      1.0000 0.05139  0.87885  0.02391  Biso   1.000  O
  O82      1.0000 0.55678  0.37345  0.52930  Biso   1.000  O
  O83      1.0000 0.73268  0.79854  0.23258  Biso   1.000  O
  O84      1.0000 0.97106  0.54936  0.23582  Biso   1.000  O
  O85      1.0000 0.87548  0.45378  0.33140  Biso   1.000  O
  O86      1.0000 0.63710  0.70296  0.32816  Biso   1.000  O
  O87      1.0000 0.26317  0.55053  0.94377  Biso   1.000  O
  O88      1.0000 0.36012  0.45358  0.84682  Biso   1.000  O
  O89      1.0000 0.73387  0.07986  0.23134  Biso   1.000  O
  O90      1.0000 0.63691  0.17681  0.32829  Biso   1.000  O
  O91      1.0000 0.97127  0.07686  0.70619  Biso   1.000  O
  O92      1.0000 0.26006  0.07999  0.70520  Biso   1.000  O
  O93      1.0000 0.35876  0.45357  0.32947  Biso   1.000  O
  O94      1.0000 0.35564  0.17556  0.60962  Biso   1.000  O
  O95      1.0000 0.25883  0.79872  0.70639  Biso   1.000  O
  O96      1.0000 0.35578  0.70177  0.60943  Biso   1.000  O
  O97      1.0000 0.97125  0.07552  0.23568  Biso   1.000  O
  O98      1.0000 0.87430  0.17246  0.33264  Biso   1.000  O
  O99      1.0000 0.35695  0.70198  0.33128  Biso   1.000  O
  O100     1.0000 0.26331  0.07674  0.94358  Biso   1.000  O
  O101     1.0000 0.35889  0.17231  0.84800  Biso   1.000  O
  O102     1.0000 0.26018  0.79875  0.23451  Biso   1.000  O
  O103     1.0000 0.63690  0.17544  0.84702  Biso   1.000  O
  O104     1.0000 0.73367  0.07866  0.94379  Biso   1.000  O
  O105     1.0000 0.87450  0.17363  0.60941  Biso   1.000  O
  O106     1.0000 0.26199  0.55035  0.23270  Biso   1.000  O
