data_image0
_cell_length_a       18.3063
_cell_length_b       18.3063
_cell_length_c       18.3063
_cell_angle_alpha    60
_cell_angle_beta     60
_cell_angle_gamma    60

loop_
  _atom_site_label
  _atom_site_occupancy
  _atom_site_fract_x
  _atom_site_fract_y
  _atom_site_fract_z
  _atom_site_thermal_displace_type
  _atom_site_B_iso_or_equiv
  _atom_site_type_symbol
  C1       1.0000 0.20664  0.38006  0.20665  Biso   1.000  C
  C2       1.0000 0.38005  0.20665  0.20665  Biso   1.000  C
  C3       1.0000 0.20664  0.20665  0.20665  Biso   1.000  C
  C4       1.0000 0.20664  0.20665  0.38006  Biso   1.000  C
  C5       1.0000 0.61995  0.79335  0.79335  Biso   1.000  C
  C6       1.0000 0.79336  0.61994  0.79335  Biso   1.000  C
  C7       1.0000 0.79336  0.79335  0.79335  Biso   1.000  C
  C8       1.0000 0.79336  0.79335  0.61994  Biso   1.000  C
  C9       1.0000 0.04520  0.56560  0.04520  Biso   1.000  C
  C10      1.0000 0.56560  0.04520  0.34400  Biso   1.000  C
  C11      1.0000 0.04520  0.34400  0.04520  Biso   1.000  C
  C12      1.0000 0.34400  0.04520  0.56560  Biso   1.000  C
  C13      1.0000 0.04520  0.04520  0.34400  Biso   1.000  C
  C14      1.0000 0.56560  0.34400  0.04520  Biso   1.000  C
  C15      1.0000 0.04520  0.04520  0.56560  Biso   1.000  C
  C16      1.0000 0.34400  0.56560  0.04520  Biso   1.000  C
  C17      1.0000 0.04520  0.34400  0.56560  Biso   1.000  C
  C18      1.0000 0.56560  0.04520  0.04520  Biso   1.000  C
  C19      1.0000 0.04520  0.56560  0.34400  Biso   1.000  C
  C20      1.0000 0.34400  0.04520  0.04520  Biso   1.000  C
  C21      1.0000 0.43440  0.95480  0.95480  Biso   1.000  C
  C22      1.0000 0.95480  0.43440  0.65600  Biso   1.000  C
  C23      1.0000 0.65600  0.95480  0.95480  Biso   1.000  C
  C24      1.0000 0.95480  0.65600  0.43440  Biso   1.000  C
  C25      1.0000 0.95480  0.95480  0.65600  Biso   1.000  C
  C26      1.0000 0.65600  0.43440  0.95480  Biso   1.000  C
  C27      1.0000 0.95480  0.95480  0.43440  Biso   1.000  C
  C28      1.0000 0.43440  0.65600  0.95480  Biso   1.000  C
  C29      1.0000 0.65600  0.95480  0.43440  Biso   1.000  C
  C30      1.0000 0.95480  0.43440  0.95480  Biso   1.000  C
  C31      1.0000 0.43440  0.95480  0.65600  Biso   1.000  C
  C32      1.0000 0.95480  0.65600  0.95480  Biso   1.000  C
  C33      1.0000 0.02683  0.53905  0.02683  Biso   1.000  C
  C34      1.0000 0.53905  0.02683  0.40729  Biso   1.000  C
  C35      1.0000 0.02683  0.40729  0.02683  Biso   1.000  C
  C36      1.0000 0.40729  0.02683  0.53905  Biso   1.000  C
  C37      1.0000 0.02683  0.02683  0.40729  Biso   1.000  C
  C38      1.0000 0.53905  0.40729  0.02683  Biso   1.000  C
  C39      1.0000 0.02683  0.02683  0.53905  Biso   1.000  C
  C40      1.0000 0.40729  0.53905  0.02683  Biso   1.000  C
  C41      1.0000 0.02683  0.40729  0.53905  Biso   1.000  C
  C42      1.0000 0.53905  0.02683  0.02683  Biso   1.000  C
  C43      1.0000 0.02683  0.53905  0.40729  Biso   1.000  C
  C44      1.0000 0.40729  0.02683  0.02683  Biso   1.000  C
  C45      1.0000 0.46095  0.97317  0.97317  Biso   1.000  C
  C46      1.0000 0.97317  0.46095  0.59271  Biso   1.000  C
  C47      1.0000 0.59271  0.97317  0.97317  Biso   1.000  C
  C48      1.0000 0.97317  0.59271  0.46095  Biso   1.000  C
  C49      1.0000 0.97317  0.97317  0.59271  Biso   1.000  C
  C50      1.0000 0.59271  0.46095  0.97317  Biso   1.000  C
  C51      1.0000 0.97317  0.97317  0.46095  Biso   1.000  C
  C52      1.0000 0.46095  0.59271  0.97317  Biso   1.000  C
  C53      1.0000 0.59271  0.97317  0.46095  Biso   1.000  C
  C54      1.0000 0.97317  0.46095  0.97317  Biso   1.000  C
  C55      1.0000 0.46095  0.97317  0.59271  Biso   1.000  C
  C56      1.0000 0.97317  0.59271  0.97317  Biso   1.000  C
  C57      1.0000 0.11144  0.38856  0.11144  Biso   1.000  C
  C58      1.0000 0.05381  0.44619  0.05381  Biso   1.000  C
  C59      1.0000 0.38856  0.11144  0.38856  Biso   1.000  C
  C60      1.0000 0.44619  0.05381  0.44619  Biso   1.000  C
  C61      1.0000 0.11144  0.11144  0.38856  Biso   1.000  C
  C62      1.0000 0.05381  0.05381  0.44619  Biso   1.000  C
  C63      1.0000 0.38856  0.38856  0.11144  Biso   1.000  C
  C64      1.0000 0.44619  0.44619  0.05381  Biso   1.000  C
  C65      1.0000 0.11144  0.38856  0.38856  Biso   1.000  C
  C66      1.0000 0.05381  0.44619  0.44619  Biso   1.000  C
  C67      1.0000 0.38856  0.11144  0.11144  Biso   1.000  C
  C68      1.0000 0.44619  0.05381  0.05381  Biso   1.000  C
  C69      1.0000 0.61144  0.88856  0.88856  Biso   1.000  C
  C70      1.0000 0.55381  0.94619  0.94619  Biso   1.000  C
  C71      1.0000 0.88856  0.61144  0.61144  Biso   1.000  C
  C72      1.0000 0.94619  0.55381  0.55381  Biso   1.000  C
  C73      1.0000 0.88856  0.88856  0.61144  Biso   1.000  C
  C74      1.0000 0.94619  0.94619  0.55381  Biso   1.000  C
  C75      1.0000 0.61144  0.61144  0.88856  Biso   1.000  C
  C76      1.0000 0.55381  0.55381  0.94619  Biso   1.000  C
  C77      1.0000 0.61144  0.88856  0.61144  Biso   1.000  C
  C78      1.0000 0.55381  0.94619  0.55381  Biso   1.000  C
  C79      1.0000 0.88856  0.61144  0.88856  Biso   1.000  C
  C80      1.0000 0.94619  0.55381  0.94619  Biso   1.000  C
  C81      1.0000 0.25000  0.25000  0.25000  Biso   1.000  C
  C82      1.0000 0.75000  0.75000  0.75000  Biso   1.000  C
  C83      1.0000 0.13368  0.42768  0.13368  Biso   1.000  C
  C84      1.0000 0.42768  0.13368  0.30496  Biso   1.000  C
  C85      1.0000 0.13368  0.30496  0.13368  Biso   1.000  C
  C86      1.0000 0.30496  0.13368  0.42768  Biso   1.000  C
  C87      1.0000 0.13368  0.13368  0.30496  Biso   1.000  C
  C88      1.0000 0.42768  0.30496  0.13368  Biso   1.000  C
  C89      1.0000 0.13368  0.13368  0.42768  Biso   1.000  C
  C90      1.0000 0.30496  0.42768  0.13368  Biso   1.000  C
  C91      1.0000 0.13368  0.30496  0.42768  Biso   1.000  C
  C92      1.0000 0.42768  0.13368  0.13368  Biso   1.000  C
  C93      1.0000 0.13368  0.42768  0.30496  Biso   1.000  C
  C94      1.0000 0.30496  0.13368  0.13368  Biso   1.000  C
  C95      1.0000 0.57232  0.86632  0.86632  Biso   1.000  C
  C96      1.0000 0.86632  0.57232  0.69504  Biso   1.000  C
  C97      1.0000 0.69504  0.86632  0.86632  Biso   1.000  C
  C98      1.0000 0.86632  0.69504  0.57232  Biso   1.000  C
  C99      1.0000 0.86632  0.86632  0.69504  Biso   1.000  C
  C100     1.0000 0.69504  0.57232  0.86632  Biso   1.000  C
  C101     1.0000 0.86632  0.86632  0.57232  Biso   1.000  C
  C102     1.0000 0.57232  0.69504  0.86632  Biso   1.000  C
  C103     1.0000 0.69504  0.86632  0.57232  Biso   1.000  C
  C104     1.0000 0.86632  0.57232  0.86632  Biso   1.000  C
  C105     1.0000 0.57232  0.86632  0.69504  Biso   1.000  C
  C106     1.0000 0.86632  0.69504  0.86632  Biso   1.000  C
  O1       1.0000 0.05095  0.49238  0.19689  Biso   1.000  O
  O2       1.0000 0.05090  0.49242  0.36724  Biso   1.000  O
  O3       1.0000 0.05095  0.66277  0.19689  Biso   1.000  O
  O4       1.0000 0.22129  0.49243  0.19684  Biso   1.000  O
  O5       1.0000 0.64460  0.08613  0.77354  Biso   1.000  O
  O6       1.0000 0.64465  0.08608  0.60320  Biso   1.000  O
  O7       1.0000 0.64460  0.91574  0.77354  Biso   1.000  O
  O8       1.0000 0.47426  0.08608  0.77359  Biso   1.000  O
  O9       1.0000 0.87452  0.31502  0.39438  Biso   1.000  O
  O10      1.0000 0.88956  0.69009  0.00326  Biso   1.000  O
  O11      1.0000 0.26545  0.31440  0.00424  Biso   1.000  O
  O12      1.0000 0.87354  0.31600  0.52355  Biso   1.000  O
  O13      1.0000 0.26565  0.31402  0.52454  Biso   1.000  O
  O14      1.0000 0.88995  0.68991  0.52336  Biso   1.000  O
  O15      1.0000 0.26544  0.83608  0.00347  Biso   1.000  O
  O16      1.0000 0.87432  0.83708  0.00149  Biso   1.000  O
  O17      1.0000 0.87530  0.83591  0.39439  Biso   1.000  O
  O18      1.0000 0.41161  0.68989  0.00248  Biso   1.000  O
  O19      1.0000 0.39560  0.31579  0.39459  Biso   1.000  O
  O20      1.0000 0.39442  0.31676  0.00188  Biso   1.000  O
  O21      1.0000 0.82103  0.26349  0.57606  Biso   1.000  O
  O22      1.0000 0.82301  0.88839  0.95018  Biso   1.000  O
  O23      1.0000 0.44711  0.26408  0.94919  Biso   1.000  O
  O24      1.0000 0.82201  0.26251  0.44689  Biso   1.000  O
  O25      1.0000 0.44691  0.26448  0.44590  Biso   1.000  O
  O26      1.0000 0.82261  0.88860  0.44708  Biso   1.000  O
  O27      1.0000 0.44712  0.75943  0.94997  Biso   1.000  O
  O28      1.0000 0.82124  0.75844  0.95195  Biso   1.000  O
  O29      1.0000 0.82025  0.75963  0.57605  Biso   1.000  O
  O30      1.0000 0.31795  0.88860  0.95095  Biso   1.000  O
  O31      1.0000 0.31696  0.26271  0.57585  Biso   1.000  O
  O32      1.0000 0.31814  0.26172  0.95155  Biso   1.000  O
  O33      1.0000 0.90066  0.34214  0.43233  Biso   1.000  O
  O34      1.0000 0.95834  0.39982  0.37465  Biso   1.000  O
  O35      1.0000 0.32040  0.72784  0.02960  Biso   1.000  O
  O36      1.0000 0.22870  0.67018  0.10429  Biso   1.000  O
  O37      1.0000 0.79489  0.23637  0.53810  Biso   1.000  O
  O38      1.0000 0.73721  0.17869  0.59579  Biso   1.000  O
  O39      1.0000 0.40917  0.85064  0.92383  Biso   1.000  O
  O40      1.0000 0.46685  0.90833  0.86615  Biso   1.000  O
  O41      1.0000 0.30359  0.34193  0.02941  Biso   1.000  O
  O42      1.0000 0.22917  0.39935  0.10381  Biso   1.000  O
  O43      1.0000 0.90046  0.74508  0.43253  Biso   1.000  O
  O44      1.0000 0.95787  0.67064  0.37512  Biso   1.000  O
  O45      1.0000 0.40897  0.23656  0.92403  Biso   1.000  O
  O46      1.0000 0.46638  0.17915  0.86662  Biso   1.000  O
  O47      1.0000 0.79509  0.85046  0.53791  Biso   1.000  O
  O48      1.0000 0.73768  0.90786  0.59531  Biso   1.000  O
  O49      1.0000 0.90027  0.74527  0.02921  Biso   1.000  O
  O50      1.0000 0.95767  0.67085  0.10362  Biso   1.000  O
  O51      1.0000 0.30378  0.34174  0.43273  Biso   1.000  O
  O52      1.0000 0.22937  0.39915  0.37532  Biso   1.000  O
  O53      1.0000 0.79529  0.85025  0.92423  Biso   1.000  O
  O54      1.0000 0.73788  0.90766  0.86682  Biso   1.000  O
  O55      1.0000 0.40877  0.23676  0.53771  Biso   1.000  O
  O56      1.0000 0.46618  0.17935  0.59512  Biso   1.000  O
  O57      1.0000 0.97898  0.42204  0.29184  Biso   1.000  O
  O58      1.0000 0.14672  0.42013  0.12650  Biso   1.000  O
  O59      1.0000 0.97939  0.58696  0.12615  Biso   1.000  O
  O60      1.0000 0.98056  0.42046  0.41460  Biso   1.000  O
  O61      1.0000 0.97865  0.58819  0.41411  Biso   1.000  O
  O62      1.0000 0.14548  0.42087  0.41495  Biso   1.000  O
  O63      1.0000 0.14589  0.71013  0.12493  Biso   1.000  O
  O64      1.0000 0.98056  0.70963  0.29267  Biso   1.000  O
  O65      1.0000 0.98020  0.71048  0.12534  Biso   1.000  O
  O66      1.0000 0.26865  0.58737  0.12650  Biso   1.000  O
  O67      1.0000 0.26816  0.42204  0.12459  Biso   1.000  O
  O68      1.0000 0.26900  0.42168  0.29143  Biso   1.000  O
  O69      1.0000 0.71657  0.15647  0.67859  Biso   1.000  O
  O70      1.0000 0.54883  0.15837  0.84393  Biso   1.000  O
  O71      1.0000 0.71615  0.99154  0.84429  Biso   1.000  O
  O72      1.0000 0.71499  0.15804  0.55584  Biso   1.000  O
  O73      1.0000 0.71690  0.99031  0.55633  Biso   1.000  O
  O74      1.0000 0.55006  0.15763  0.55548  Biso   1.000  O
  O75      1.0000 0.54965  0.86838  0.84551  Biso   1.000  O
  O76      1.0000 0.71499  0.86887  0.67777  Biso   1.000  O
  O77      1.0000 0.71535  0.86802  0.84509  Biso   1.000  O
  O78      1.0000 0.42690  0.99113  0.84393  Biso   1.000  O
  O79      1.0000 0.42739  0.15646  0.84584  Biso   1.000  O
  O80      1.0000 0.42654  0.15682  0.67901  Biso   1.000  O
  O81      1.0000 0.09352  0.53500  0.23947  Biso   1.000  O
  O82      1.0000 0.60203  0.04351  0.73097  Biso   1.000  O
  O83      1.0000 0.91066  0.61480  0.02582  Biso   1.000  O
  O84      1.0000 0.89688  0.86871  0.02260  Biso   1.000  O
  O85      1.0000 0.80190  0.96368  0.92762  Biso   1.000  O
  O86      1.0000 0.81568  0.70977  0.93084  Biso   1.000  O
  O87      1.0000 0.89810  0.86754  0.31910  Biso   1.000  O
  O88      1.0000 0.80176  0.96388  0.41544  Biso   1.000  O
  O89      1.0000 0.19017  0.33525  0.02705  Biso   1.000  O
  O90      1.0000 0.28651  0.23891  0.93070  Biso   1.000  O
  O91      1.0000 0.89496  0.33823  0.55519  Biso   1.000  O
  O92      1.0000 0.19035  0.33513  0.55617  Biso   1.000  O
  O93      1.0000 0.28631  0.96389  0.92953  Biso   1.000  O
  O94      1.0000 0.28533  0.24015  0.65115  Biso   1.000  O
  O95      1.0000 0.91079  0.61462  0.55499  Biso   1.000  O
  O96      1.0000 0.81445  0.71096  0.65134  Biso   1.000  O
  O97      1.0000 0.42605  0.33957  0.02273  Biso   1.000  O
  O98      1.0000 0.52240  0.24323  0.92639  Biso   1.000  O
  O99      1.0000 0.53942  0.71076  0.92774  Biso   1.000  O
  O100     1.0000 0.42723  0.33835  0.31929  Biso   1.000  O
  O101     1.0000 0.52221  0.24338  0.41426  Biso   1.000  O
  O102     1.0000 0.44326  0.61459  0.02390  Biso   1.000  O
  O103     1.0000 0.80059  0.24027  0.41525  Biso   1.000  O
  O104     1.0000 0.89676  0.33644  0.31908  Biso   1.000  O
  O105     1.0000 0.79879  0.24207  0.65135  Biso   1.000  O
  O106     1.0000 0.19015  0.86773  0.02570  Biso   1.000  O
