data_image0
_cell_length_a       18.3127
_cell_length_b       18.3127
_cell_length_c       18.3127
_cell_angle_alpha    60
_cell_angle_beta     60
_cell_angle_gamma    60

loop_
  _atom_site_label
  _atom_site_occupancy
  _atom_site_fract_x
  _atom_site_fract_y
  _atom_site_fract_z
  _atom_site_thermal_displace_type
  _atom_site_B_iso_or_equiv
  _atom_site_type_symbol
  C1       1.0000 0.20666  0.38001  0.20666  Biso   1.000  C
  C2       1.0000 0.38001  0.20666  0.20666  Biso   1.000  C
  C3       1.0000 0.20667  0.20666  0.20666  Biso   1.000  C
  C4       1.0000 0.20667  0.20666  0.38001  Biso   1.000  C
  C5       1.0000 0.61999  0.79334  0.79334  Biso   1.000  C
  C6       1.0000 0.79334  0.61999  0.79333  Biso   1.000  C
  C7       1.0000 0.79334  0.79333  0.79334  Biso   1.000  C
  C8       1.0000 0.79334  0.79333  0.61999  Biso   1.000  C
  C9       1.0000 0.04520  0.56580  0.04520  Biso   1.000  C
  C10      1.0000 0.56580  0.04520  0.34380  Biso   1.000  C
  C11      1.0000 0.04520  0.34380  0.04520  Biso   1.000  C
  C12      1.0000 0.34380  0.04520  0.56580  Biso   1.000  C
  C13      1.0000 0.04520  0.04520  0.34380  Biso   1.000  C
  C14      1.0000 0.56580  0.34380  0.04520  Biso   1.000  C
  C15      1.0000 0.04520  0.04520  0.56580  Biso   1.000  C
  C16      1.0000 0.34380  0.56580  0.04520  Biso   1.000  C
  C17      1.0000 0.04520  0.34380  0.56580  Biso   1.000  C
  C18      1.0000 0.56580  0.04520  0.04520  Biso   1.000  C
  C19      1.0000 0.04520  0.56580  0.34380  Biso   1.000  C
  C20      1.0000 0.34380  0.04520  0.04520  Biso   1.000  C
  C21      1.0000 0.43420  0.95480  0.95480  Biso   1.000  C
  C22      1.0000 0.95480  0.43420  0.65620  Biso   1.000  C
  C23      1.0000 0.65620  0.95480  0.95480  Biso   1.000  C
  C24      1.0000 0.95480  0.65620  0.43420  Biso   1.000  C
  C25      1.0000 0.95480  0.95480  0.65620  Biso   1.000  C
  C26      1.0000 0.65620  0.43420  0.95480  Biso   1.000  C
  C27      1.0000 0.95480  0.95480  0.43420  Biso   1.000  C
  C28      1.0000 0.43420  0.65620  0.95480  Biso   1.000  C
  C29      1.0000 0.65620  0.95480  0.43420  Biso   1.000  C
  C30      1.0000 0.95480  0.43420  0.95480  Biso   1.000  C
  C31      1.0000 0.43420  0.95480  0.65620  Biso   1.000  C
  C32      1.0000 0.95480  0.65620  0.95480  Biso   1.000  C
  C33      1.0000 0.02688  0.53930  0.02688  Biso   1.000  C
  C34      1.0000 0.53930  0.02688  0.40694  Biso   1.000  C
  C35      1.0000 0.02688  0.40694  0.02688  Biso   1.000  C
  C36      1.0000 0.40694  0.02688  0.53930  Biso   1.000  C
  C37      1.0000 0.02688  0.02688  0.40694  Biso   1.000  C
  C38      1.0000 0.53930  0.40694  0.02688  Biso   1.000  C
  C39      1.0000 0.02688  0.02688  0.53930  Biso   1.000  C
  C40      1.0000 0.40694  0.53930  0.02688  Biso   1.000  C
  C41      1.0000 0.02688  0.40694  0.53930  Biso   1.000  C
  C42      1.0000 0.53930  0.02688  0.02688  Biso   1.000  C
  C43      1.0000 0.02688  0.53930  0.40694  Biso   1.000  C
  C44      1.0000 0.40694  0.02688  0.02688  Biso   1.000  C
  C45      1.0000 0.46070  0.97312  0.97312  Biso   1.000  C
  C46      1.0000 0.97312  0.46070  0.59306  Biso   1.000  C
  C47      1.0000 0.59306  0.97312  0.97312  Biso   1.000  C
  C48      1.0000 0.97312  0.59306  0.46070  Biso   1.000  C
  C49      1.0000 0.97312  0.97312  0.59306  Biso   1.000  C
  C50      1.0000 0.59306  0.46070  0.97312  Biso   1.000  C
  C51      1.0000 0.97312  0.97312  0.46070  Biso   1.000  C
  C52      1.0000 0.46070  0.59306  0.97312  Biso   1.000  C
  C53      1.0000 0.59306  0.97312  0.46070  Biso   1.000  C
  C54      1.0000 0.97312  0.46070  0.97312  Biso   1.000  C
  C55      1.0000 0.46070  0.97312  0.59306  Biso   1.000  C
  C56      1.0000 0.97312  0.59306  0.97312  Biso   1.000  C
  C57      1.0000 0.11142  0.38858  0.11142  Biso   1.000  C
  C58      1.0000 0.05381  0.44619  0.05381  Biso   1.000  C
  C59      1.0000 0.38858  0.11142  0.38858  Biso   1.000  C
  C60      1.0000 0.44619  0.05381  0.44619  Biso   1.000  C
  C61      1.0000 0.11142  0.11142  0.38858  Biso   1.000  C
  C62      1.0000 0.05381  0.05381  0.44619  Biso   1.000  C
  C63      1.0000 0.38858  0.38858  0.11142  Biso   1.000  C
  C64      1.0000 0.44619  0.44619  0.05381  Biso   1.000  C
  C65      1.0000 0.11142  0.38858  0.38858  Biso   1.000  C
  C66      1.0000 0.05381  0.44619  0.44619  Biso   1.000  C
  C67      1.0000 0.38858  0.11142  0.11142  Biso   1.000  C
  C68      1.0000 0.44619  0.05381  0.05381  Biso   1.000  C
  C69      1.0000 0.61142  0.88858  0.88858  Biso   1.000  C
  C70      1.0000 0.55381  0.94619  0.94619  Biso   1.000  C
  C71      1.0000 0.88858  0.61142  0.61142  Biso   1.000  C
  C72      1.0000 0.94619  0.55381  0.55381  Biso   1.000  C
  C73      1.0000 0.88858  0.88858  0.61142  Biso   1.000  C
  C74      1.0000 0.94619  0.94619  0.55381  Biso   1.000  C
  C75      1.0000 0.61142  0.61142  0.88858  Biso   1.000  C
  C76      1.0000 0.55381  0.55381  0.94619  Biso   1.000  C
  C77      1.0000 0.61142  0.88858  0.61142  Biso   1.000  C
  C78      1.0000 0.55381  0.94619  0.55381  Biso   1.000  C
  C79      1.0000 0.88858  0.61142  0.88858  Biso   1.000  C
  C80      1.0000 0.94619  0.55381  0.94619  Biso   1.000  C
  C81      1.0000 0.25000  0.25000  0.25000  Biso   1.000  C
  C82      1.0000 0.75000  0.75000  0.75000  Biso   1.000  C
  C83      1.0000 0.13369  0.42773  0.13369  Biso   1.000  C
  C84      1.0000 0.42773  0.13369  0.30489  Biso   1.000  C
  C85      1.0000 0.13369  0.30489  0.13369  Biso   1.000  C
  C86      1.0000 0.30489  0.13369  0.42773  Biso   1.000  C
  C87      1.0000 0.13369  0.13369  0.30489  Biso   1.000  C
  C88      1.0000 0.42773  0.30489  0.13369  Biso   1.000  C
  C89      1.0000 0.13369  0.13369  0.42773  Biso   1.000  C
  C90      1.0000 0.30489  0.42773  0.13369  Biso   1.000  C
  C91      1.0000 0.13369  0.30489  0.42773  Biso   1.000  C
  C92      1.0000 0.42773  0.13369  0.13369  Biso   1.000  C
  C93      1.0000 0.13369  0.42773  0.30489  Biso   1.000  C
  C94      1.0000 0.30489  0.13369  0.13369  Biso   1.000  C
  C95      1.0000 0.57227  0.86631  0.86631  Biso   1.000  C
  C96      1.0000 0.86631  0.57227  0.69511  Biso   1.000  C
  C97      1.0000 0.69511  0.86631  0.86631  Biso   1.000  C
  C98      1.0000 0.86631  0.69511  0.57227  Biso   1.000  C
  C99      1.0000 0.86631  0.86631  0.69511  Biso   1.000  C
  C100     1.0000 0.69511  0.57227  0.86631  Biso   1.000  C
  C101     1.0000 0.86631  0.86631  0.57227  Biso   1.000  C
  C102     1.0000 0.57227  0.69511  0.86631  Biso   1.000  C
  C103     1.0000 0.69511  0.86631  0.57227  Biso   1.000  C
  C104     1.0000 0.86631  0.57227  0.86631  Biso   1.000  C
  C105     1.0000 0.57227  0.86631  0.69511  Biso   1.000  C
  C106     1.0000 0.86631  0.69511  0.86631  Biso   1.000  C
  O1       1.0000 0.04951  0.49203  0.19746  Biso   1.000  O
  O2       1.0000 0.04947  0.49208  0.36768  Biso   1.000  O
  O3       1.0000 0.04951  0.66230  0.19746  Biso   1.000  O
  O4       1.0000 0.21974  0.49208  0.19741  Biso   1.000  O
  O5       1.0000 0.64345  0.08607  0.77370  Biso   1.000  O
  O6       1.0000 0.64350  0.08602  0.60348  Biso   1.000  O
  O7       1.0000 0.64345  0.91580  0.77370  Biso   1.000  O
  O8       1.0000 0.47323  0.08602  0.77375  Biso   1.000  O
  O9       1.0000 0.87321  0.31480  0.39480  Biso   1.000  O
  O10      1.0000 0.88893  0.68961  0.00326  Biso   1.000  O
  O11      1.0000 0.26457  0.31418  0.00424  Biso   1.000  O
  O12      1.0000 0.87223  0.31578  0.52388  Biso   1.000  O
  O13      1.0000 0.26476  0.31380  0.52487  Biso   1.000  O
  O14      1.0000 0.88932  0.68942  0.52369  Biso   1.000  O
  O15      1.0000 0.26456  0.83620  0.00346  Biso   1.000  O
  O16      1.0000 0.87301  0.83719  0.00149  Biso   1.000  O
  O17      1.0000 0.87399  0.83603  0.39481  Biso   1.000  O
  O18      1.0000 0.41133  0.68940  0.00248  Biso   1.000  O
  O19      1.0000 0.39462  0.31557  0.39501  Biso   1.000  O
  O20      1.0000 0.39345  0.31654  0.00188  Biso   1.000  O
  O21      1.0000 0.81975  0.26330  0.57635  Biso   1.000  O
  O22      1.0000 0.82173  0.88847  0.95021  Biso   1.000  O
  O23      1.0000 0.44610  0.26389  0.94923  Biso   1.000  O
  O24      1.0000 0.82074  0.26232  0.44728  Biso   1.000  O
  O25      1.0000 0.44590  0.26430  0.44629  Biso   1.000  O
  O26      1.0000 0.82133  0.88867  0.44746  Biso   1.000  O
  O27      1.0000 0.44611  0.75960  0.95001  Biso   1.000  O
  O28      1.0000 0.81996  0.75861  0.95198  Biso   1.000  O
  O29      1.0000 0.81898  0.75980  0.57634  Biso   1.000  O
  O30      1.0000 0.31703  0.88867  0.95099  Biso   1.000  O
  O31      1.0000 0.31604  0.26253  0.57615  Biso   1.000  O
  O32      1.0000 0.31722  0.26154  0.95159  Biso   1.000  O
  O33      1.0000 0.89933  0.34190  0.43273  Biso   1.000  O
  O34      1.0000 0.95697  0.39954  0.37509  Biso   1.000  O
  O35      1.0000 0.32018  0.72733  0.02958  Biso   1.000  O
  O36      1.0000 0.22714  0.66971  0.10491  Biso   1.000  O
  O37      1.0000 0.79363  0.23620  0.53843  Biso   1.000  O
  O38      1.0000 0.73599  0.17856  0.59607  Biso   1.000  O
  O39      1.0000 0.40818  0.85075  0.92389  Biso   1.000  O
  O40      1.0000 0.46582  0.90839  0.86624  Biso   1.000  O
  O41      1.0000 0.30268  0.34169  0.02939  Biso   1.000  O
  O42      1.0000 0.22761  0.39907  0.10444  Biso   1.000  O
  O43      1.0000 0.89913  0.74526  0.43293  Biso   1.000  O
  O44      1.0000 0.95650  0.67018  0.37556  Biso   1.000  O
  O45      1.0000 0.40798  0.23639  0.92408  Biso   1.000  O
  O46      1.0000 0.46535  0.17903  0.86672  Biso   1.000  O
  O47      1.0000 0.79383  0.85056  0.53823  Biso   1.000  O
  O48      1.0000 0.73646  0.90792  0.59560  Biso   1.000  O
  O49      1.0000 0.89894  0.74545  0.02919  Biso   1.000  O
  O50      1.0000 0.95630  0.67038  0.10424  Biso   1.000  O
  O51      1.0000 0.30287  0.34150  0.43312  Biso   1.000  O
  O52      1.0000 0.22781  0.39887  0.37576  Biso   1.000  O
  O53      1.0000 0.79403  0.85036  0.92428  Biso   1.000  O
  O54      1.0000 0.73666  0.90772  0.86691  Biso   1.000  O
  O55      1.0000 0.40778  0.23659  0.53803  Biso   1.000  O
  O56      1.0000 0.46515  0.17923  0.59540  Biso   1.000  O
  O57      1.0000 0.97760  0.42174  0.29234  Biso   1.000  O
  O58      1.0000 0.14522  0.41984  0.12711  Biso   1.000  O
  O59      1.0000 0.97801  0.58655  0.12676  Biso   1.000  O
  O60      1.0000 0.97917  0.42017  0.41501  Biso   1.000  O
  O61      1.0000 0.97727  0.58778  0.41452  Biso   1.000  O
  O62      1.0000 0.14398  0.42058  0.41536  Biso   1.000  O
  O63      1.0000 0.14439  0.70963  0.12554  Biso   1.000  O
  O64      1.0000 0.97917  0.70913  0.29316  Biso   1.000  O
  O65      1.0000 0.97882  0.70998  0.12595  Biso   1.000  O
  O66      1.0000 0.26706  0.58696  0.12711  Biso   1.000  O
  O67      1.0000 0.26657  0.42174  0.12521  Biso   1.000  O
  O68      1.0000 0.26742  0.42139  0.29192  Biso   1.000  O
  O69      1.0000 0.71537  0.15636  0.67882  Biso   1.000  O
  O70      1.0000 0.54775  0.15826  0.84404  Biso   1.000  O
  O71      1.0000 0.71495  0.99155  0.84440  Biso   1.000  O
  O72      1.0000 0.71379  0.15793  0.55615  Biso   1.000  O
  O73      1.0000 0.71570  0.99032  0.55664  Biso   1.000  O
  O74      1.0000 0.54898  0.15752  0.55579  Biso   1.000  O
  O75      1.0000 0.54857  0.86847  0.84562  Biso   1.000  O
  O76      1.0000 0.71379  0.86896  0.67799  Biso   1.000  O
  O77      1.0000 0.71415  0.86812  0.84520  Biso   1.000  O
  O78      1.0000 0.42590  0.99114  0.84404  Biso   1.000  O
  O79      1.0000 0.42639  0.15636  0.84595  Biso   1.000  O
  O80      1.0000 0.42555  0.15671  0.67923  Biso   1.000  O
  O81      1.0000 0.09206  0.53462  0.24000  Biso   1.000  O
  O82      1.0000 0.60091  0.04348  0.73116  Biso   1.000  O
  O83      1.0000 0.91002  0.61437  0.02580  Biso   1.000  O
  O84      1.0000 0.89555  0.86880  0.02258  Biso   1.000  O
  O85      1.0000 0.80064  0.96371  0.92767  Biso   1.000  O
  O86      1.0000 0.81511  0.70928  0.93089  Biso   1.000  O
  O87      1.0000 0.89678  0.86764  0.31958  Biso   1.000  O
  O88      1.0000 0.80050  0.96391  0.41585  Biso   1.000  O
  O89      1.0000 0.18933  0.33502  0.02703  Biso   1.000  O
  O90      1.0000 0.28561  0.23875  0.93075  Biso   1.000  O
  O91      1.0000 0.89363  0.33800  0.55550  Biso   1.000  O
  O92      1.0000 0.18952  0.33489  0.55648  Biso   1.000  O
  O93      1.0000 0.28541  0.96392  0.92958  Biso   1.000  O
  O94      1.0000 0.28443  0.23998  0.65139  Biso   1.000  O
  O95      1.0000 0.91016  0.61419  0.55530  Biso   1.000  O
  O96      1.0000 0.81388  0.71046  0.65158  Biso   1.000  O
  O97      1.0000 0.42506  0.33933  0.02272  Biso   1.000  O
  O98      1.0000 0.52133  0.24306  0.92644  Biso   1.000  O
  O99      1.0000 0.53905  0.71026  0.92779  Biso   1.000  O
  O100     1.0000 0.42623  0.33812  0.31976  Biso   1.000  O
  O101     1.0000 0.52114  0.24321  0.41467  Biso   1.000  O
  O102     1.0000 0.44295  0.61416  0.02389  Biso   1.000  O
  O103     1.0000 0.79933  0.24010  0.41566  Biso   1.000  O
  O104     1.0000 0.89543  0.33620  0.31956  Biso   1.000  O
  O105     1.0000 0.79754  0.24190  0.65160  Biso   1.000  O
  O106     1.0000 0.18931  0.86782  0.02568  Biso   1.000  O
