data_image0
_cell_length_a       18.2943
_cell_length_b       18.2943
_cell_length_c       18.2943
_cell_angle_alpha    60
_cell_angle_beta     60
_cell_angle_gamma    60

loop_
  _atom_site_label
  _atom_site_occupancy
  _atom_site_fract_x
  _atom_site_fract_y
  _atom_site_fract_z
  _atom_site_thermal_displace_type
  _atom_site_B_iso_or_equiv
  _atom_site_type_symbol
  C1       1.0000 0.20660  0.38020  0.20660  Biso   1.000  C
  C2       1.0000 0.38020  0.20660  0.20660  Biso   1.000  C
  C3       1.0000 0.20660  0.20660  0.20660  Biso   1.000  C
  C4       1.0000 0.20660  0.20660  0.38020  Biso   1.000  C
  C5       1.0000 0.61980  0.79340  0.79340  Biso   1.000  C
  C6       1.0000 0.79340  0.61980  0.79340  Biso   1.000  C
  C7       1.0000 0.79340  0.79340  0.79340  Biso   1.000  C
  C8       1.0000 0.79340  0.79340  0.61980  Biso   1.000  C
  C9       1.0000 0.04510  0.56550  0.04510  Biso   1.000  C
  C10      1.0000 0.56550  0.04510  0.34430  Biso   1.000  C
  C11      1.0000 0.04510  0.34430  0.04510  Biso   1.000  C
  C12      1.0000 0.34430  0.04510  0.56550  Biso   1.000  C
  C13      1.0000 0.04510  0.04510  0.34430  Biso   1.000  C
  C14      1.0000 0.56550  0.34430  0.04510  Biso   1.000  C
  C15      1.0000 0.04510  0.04510  0.56550  Biso   1.000  C
  C16      1.0000 0.34430  0.56550  0.04510  Biso   1.000  C
  C17      1.0000 0.04510  0.34430  0.56550  Biso   1.000  C
  C18      1.0000 0.56550  0.04510  0.04510  Biso   1.000  C
  C19      1.0000 0.04510  0.56550  0.34430  Biso   1.000  C
  C20      1.0000 0.34430  0.04510  0.04510  Biso   1.000  C
  C21      1.0000 0.43450  0.95490  0.95490  Biso   1.000  C
  C22      1.0000 0.95490  0.43450  0.65570  Biso   1.000  C
  C23      1.0000 0.65570  0.95490  0.95490  Biso   1.000  C
  C24      1.0000 0.95490  0.65570  0.43450  Biso   1.000  C
  C25      1.0000 0.95490  0.95490  0.65570  Biso   1.000  C
  C26      1.0000 0.65570  0.43450  0.95490  Biso   1.000  C
  C27      1.0000 0.95490  0.95490  0.43450  Biso   1.000  C
  C28      1.0000 0.43450  0.65570  0.95490  Biso   1.000  C
  C29      1.0000 0.65570  0.95490  0.43450  Biso   1.000  C
  C30      1.0000 0.95490  0.43450  0.95490  Biso   1.000  C
  C31      1.0000 0.43450  0.95490  0.65570  Biso   1.000  C
  C32      1.0000 0.95490  0.65570  0.95490  Biso   1.000  C
  C33      1.0000 0.02675  0.53889  0.02675  Biso   1.000  C
  C34      1.0000 0.53889  0.02675  0.40761  Biso   1.000  C
  C35      1.0000 0.02675  0.40761  0.02675  Biso   1.000  C
  C36      1.0000 0.40761  0.02675  0.53889  Biso   1.000  C
  C37      1.0000 0.02675  0.02675  0.40761  Biso   1.000  C
  C38      1.0000 0.53889  0.40761  0.02675  Biso   1.000  C
  C39      1.0000 0.02675  0.02675  0.53889  Biso   1.000  C
  C40      1.0000 0.40761  0.53889  0.02675  Biso   1.000  C
  C41      1.0000 0.02675  0.40761  0.53889  Biso   1.000  C
  C42      1.0000 0.53889  0.02675  0.02675  Biso   1.000  C
  C43      1.0000 0.02675  0.53889  0.40761  Biso   1.000  C
  C44      1.0000 0.40761  0.02675  0.02675  Biso   1.000  C
  C45      1.0000 0.46111  0.97325  0.97325  Biso   1.000  C
  C46      1.0000 0.97325  0.46111  0.59239  Biso   1.000  C
  C47      1.0000 0.59239  0.97325  0.97325  Biso   1.000  C
  C48      1.0000 0.97325  0.59239  0.46111  Biso   1.000  C
  C49      1.0000 0.97325  0.97325  0.59239  Biso   1.000  C
  C50      1.0000 0.59239  0.46111  0.97325  Biso   1.000  C
  C51      1.0000 0.97325  0.97325  0.46111  Biso   1.000  C
  C52      1.0000 0.46111  0.59239  0.97325  Biso   1.000  C
  C53      1.0000 0.59239  0.97325  0.46111  Biso   1.000  C
  C54      1.0000 0.97325  0.46111  0.97325  Biso   1.000  C
  C55      1.0000 0.46111  0.97325  0.59239  Biso   1.000  C
  C56      1.0000 0.97325  0.59239  0.97325  Biso   1.000  C
  C57      1.0000 0.11147  0.38853  0.11147  Biso   1.000  C
  C58      1.0000 0.05374  0.44626  0.05374  Biso   1.000  C
  C59      1.0000 0.38853  0.11147  0.38853  Biso   1.000  C
  C60      1.0000 0.44626  0.05374  0.44626  Biso   1.000  C
  C61      1.0000 0.11147  0.11147  0.38853  Biso   1.000  C
  C62      1.0000 0.05374  0.05374  0.44626  Biso   1.000  C
  C63      1.0000 0.38853  0.38853  0.11147  Biso   1.000  C
  C64      1.0000 0.44626  0.44626  0.05374  Biso   1.000  C
  C65      1.0000 0.11147  0.38853  0.38853  Biso   1.000  C
  C66      1.0000 0.05374  0.44626  0.44626  Biso   1.000  C
  C67      1.0000 0.38853  0.11147  0.11147  Biso   1.000  C
  C68      1.0000 0.44626  0.05374  0.05374  Biso   1.000  C
  C69      1.0000 0.61147  0.88853  0.88853  Biso   1.000  C
  C70      1.0000 0.55374  0.94626  0.94626  Biso   1.000  C
  C71      1.0000 0.88853  0.61147  0.61147  Biso   1.000  C
  C72      1.0000 0.94626  0.55374  0.55374  Biso   1.000  C
  C73      1.0000 0.88853  0.88853  0.61147  Biso   1.000  C
  C74      1.0000 0.94626  0.94626  0.55374  Biso   1.000  C
  C75      1.0000 0.61147  0.61147  0.88853  Biso   1.000  C
  C76      1.0000 0.55374  0.55374  0.94626  Biso   1.000  C
  C77      1.0000 0.61147  0.88853  0.61147  Biso   1.000  C
  C78      1.0000 0.55374  0.94626  0.55374  Biso   1.000  C
  C79      1.0000 0.88853  0.61147  0.88853  Biso   1.000  C
  C80      1.0000 0.94626  0.55374  0.94626  Biso   1.000  C
  C81      1.0000 0.25000  0.25000  0.25000  Biso   1.000  C
  C82      1.0000 0.75000  0.75000  0.75000  Biso   1.000  C
  C83      1.0000 0.13372  0.42764  0.13372  Biso   1.000  C
  C84      1.0000 0.42764  0.13372  0.30492  Biso   1.000  C
  C85      1.0000 0.13372  0.30492  0.13372  Biso   1.000  C
  C86      1.0000 0.30492  0.13372  0.42764  Biso   1.000  C
  C87      1.0000 0.13372  0.13372  0.30492  Biso   1.000  C
  C88      1.0000 0.42764  0.30492  0.13372  Biso   1.000  C
  C89      1.0000 0.13372  0.13372  0.42764  Biso   1.000  C
  C90      1.0000 0.30492  0.42764  0.13372  Biso   1.000  C
  C91      1.0000 0.13372  0.30492  0.42764  Biso   1.000  C
  C92      1.0000 0.42764  0.13372  0.13372  Biso   1.000  C
  C93      1.0000 0.13372  0.42764  0.30492  Biso   1.000  C
  C94      1.0000 0.30492  0.13372  0.13372  Biso   1.000  C
  C95      1.0000 0.57236  0.86628  0.86628  Biso   1.000  C
  C96      1.0000 0.86628  0.57236  0.69508  Biso   1.000  C
  C97      1.0000 0.69508  0.86628  0.86628  Biso   1.000  C
  C98      1.0000 0.86628  0.69508  0.57236  Biso   1.000  C
  C99      1.0000 0.86628  0.86628  0.69508  Biso   1.000  C
  C100     1.0000 0.69508  0.57236  0.86628  Biso   1.000  C
  C101     1.0000 0.86628  0.86628  0.57236  Biso   1.000  C
  C102     1.0000 0.57236  0.69508  0.86628  Biso   1.000  C
  C103     1.0000 0.69508  0.86628  0.57236  Biso   1.000  C
  C104     1.0000 0.86628  0.57236  0.86628  Biso   1.000  C
  C105     1.0000 0.57236  0.86628  0.69508  Biso   1.000  C
  C106     1.0000 0.86628  0.69508  0.86628  Biso   1.000  C
  O1       1.0000 0.05364  0.49302  0.19584  Biso   1.000  O
  O2       1.0000 0.05359  0.49307  0.36641  Biso   1.000  O
  O3       1.0000 0.05364  0.66363  0.19584  Biso   1.000  O
  O4       1.0000 0.22420  0.49307  0.19579  Biso   1.000  O
  O5       1.0000 0.64676  0.08624  0.77324  Biso   1.000  O
  O6       1.0000 0.64681  0.08619  0.60268  Biso   1.000  O
  O7       1.0000 0.64676  0.91563  0.77324  Biso   1.000  O
  O8       1.0000 0.47619  0.08619  0.77329  Biso   1.000  O
  O9       1.0000 0.87698  0.31543  0.39358  Biso   1.000  O
  O10      1.0000 0.89072  0.69100  0.00326  Biso   1.000  O
  O11      1.0000 0.26711  0.31482  0.00425  Biso   1.000  O
  O12      1.0000 0.87600  0.31641  0.52292  Biso   1.000  O
  O13      1.0000 0.26731  0.31443  0.52391  Biso   1.000  O
  O14      1.0000 0.89111  0.69081  0.52273  Biso   1.000  O
  O15      1.0000 0.26710  0.83587  0.00347  Biso   1.000  O
  O16      1.0000 0.87678  0.83686  0.00149  Biso   1.000  O
  O17      1.0000 0.87776  0.83570  0.39359  Biso   1.000  O
  O18      1.0000 0.41215  0.69079  0.00249  Biso   1.000  O
  O19      1.0000 0.39743  0.31621  0.39379  Biso   1.000  O
  O20      1.0000 0.39625  0.31718  0.00189  Biso   1.000  O
  O21      1.0000 0.82342  0.26383  0.57550  Biso   1.000  O
  O22      1.0000 0.82540  0.88824  0.95011  Biso   1.000  O
  O23      1.0000 0.44901  0.26442  0.94913  Biso   1.000  O
  O24      1.0000 0.82440  0.26285  0.44616  Biso   1.000  O
  O25      1.0000 0.44881  0.26483  0.44517  Biso   1.000  O
  O26      1.0000 0.82500  0.88845  0.44635  Biso   1.000  O
  O27      1.0000 0.44902  0.75912  0.94991  Biso   1.000  O
  O28      1.0000 0.82363  0.75812  0.95188  Biso   1.000  O
  O29      1.0000 0.82264  0.75931  0.57549  Biso   1.000  O
  O30      1.0000 0.31968  0.88845  0.95089  Biso   1.000  O
  O31      1.0000 0.31869  0.26305  0.57529  Biso   1.000  O
  O32      1.0000 0.31987  0.26206  0.95149  Biso   1.000  O
  O33      1.0000 0.90315  0.34259  0.43159  Biso   1.000  O
  O34      1.0000 0.96091  0.40034  0.37383  Biso   1.000  O
  O35      1.0000 0.32082  0.72879  0.02964  Biso   1.000  O
  O36      1.0000 0.23163  0.67106  0.10311  Biso   1.000  O
  O37      1.0000 0.79724  0.23668  0.53750  Biso   1.000  O
  O38      1.0000 0.73949  0.17892  0.59526  Biso   1.000  O
  O39      1.0000 0.41101  0.85045  0.92373  Biso   1.000  O
  O40      1.0000 0.46877  0.90820  0.86597  Biso   1.000  O
  O41      1.0000 0.30530  0.34238  0.02945  Biso   1.000  O
  O42      1.0000 0.23210  0.39988  0.10264  Biso   1.000  O
  O43      1.0000 0.90296  0.74475  0.43178  Biso   1.000  O
  O44      1.0000 0.96044  0.67152  0.37430  Biso   1.000  O
  O45      1.0000 0.41082  0.23687  0.92393  Biso   1.000  O
  O46      1.0000 0.46830  0.17939  0.86645  Biso   1.000  O
  O47      1.0000 0.79744  0.85026  0.53730  Biso   1.000  O
  O48      1.0000 0.73996  0.90774  0.59478  Biso   1.000  O
  O49      1.0000 0.90276  0.74493  0.02925  Biso   1.000  O
  O50      1.0000 0.96024  0.67173  0.10244  Biso   1.000  O
  O51      1.0000 0.30550  0.34219  0.43198  Biso   1.000  O
  O52      1.0000 0.23230  0.39967  0.37450  Biso   1.000  O
  O53      1.0000 0.79764  0.85005  0.92413  Biso   1.000  O
  O54      1.0000 0.74016  0.90754  0.86664  Biso   1.000  O
  O55      1.0000 0.41062  0.23707  0.53710  Biso   1.000  O
  O56      1.0000 0.46810  0.17959  0.59459  Biso   1.000  O
  O57      1.0000 0.98158  0.42259  0.29091  Biso   1.000  O
  O58      1.0000 0.14954  0.42068  0.12536  Biso   1.000  O
  O59      1.0000 0.98199  0.58773  0.12500  Biso   1.000  O
  O60      1.0000 0.98316  0.42101  0.41383  Biso   1.000  O
  O61      1.0000 0.98125  0.58896  0.41334  Biso   1.000  O
  O62      1.0000 0.14830  0.42142  0.41419  Biso   1.000  O
  O63      1.0000 0.14871  0.71106  0.12378  Biso   1.000  O
  O64      1.0000 0.98315  0.71056  0.29174  Biso   1.000  O
  O65      1.0000 0.98280  0.71141  0.12419  Biso   1.000  O
  O66      1.0000 0.27163  0.58814  0.12536  Biso   1.000  O
  O67      1.0000 0.27113  0.42259  0.12345  Biso   1.000  O
  O68      1.0000 0.27198  0.42223  0.29050  Biso   1.000  O
  O69      1.0000 0.71882  0.15667  0.67817  Biso   1.000  O
  O70      1.0000 0.55086  0.15858  0.84373  Biso   1.000  O
  O71      1.0000 0.71841  0.99153  0.84408  Biso   1.000  O
  O72      1.0000 0.71724  0.15825  0.55525  Biso   1.000  O
  O73      1.0000 0.71915  0.99030  0.55575  Biso   1.000  O
  O74      1.0000 0.55210  0.15784  0.55490  Biso   1.000  O
  O75      1.0000 0.55169  0.86821  0.84530  Biso   1.000  O
  O76      1.0000 0.71724  0.86870  0.67735  Biso   1.000  O
  O77      1.0000 0.71760  0.86785  0.84489  Biso   1.000  O
  O78      1.0000 0.42877  0.99112  0.84373  Biso   1.000  O
  O79      1.0000 0.42926  0.15667  0.84564  Biso   1.000  O
  O80      1.0000 0.42841  0.15703  0.67859  Biso   1.000  O
  O81      1.0000 0.09627  0.53570  0.23847  Biso   1.000  O
  O82      1.0000 0.60413  0.04356  0.73062  Biso   1.000  O
  O83      1.0000 0.91186  0.61560  0.02585  Biso   1.000  O
  O84      1.0000 0.89937  0.86854  0.02262  Biso   1.000  O
  O85      1.0000 0.80427  0.96364  0.92752  Biso   1.000  O
  O86      1.0000 0.81675  0.71070  0.93075  Biso   1.000  O
  O87      1.0000 0.90059  0.86737  0.31821  Biso   1.000  O
  O88      1.0000 0.80412  0.96384  0.41468  Biso   1.000  O
  O89      1.0000 0.19173  0.33569  0.02708  Biso   1.000  O
  O90      1.0000 0.28820  0.23923  0.93061  Biso   1.000  O
  O91      1.0000 0.89744  0.33868  0.55460  Biso   1.000  O
  O92      1.0000 0.19191  0.33557  0.55559  Biso   1.000  O
  O93      1.0000 0.28800  0.96384  0.92944  Biso   1.000  O
  O94      1.0000 0.28701  0.24046  0.65069  Biso   1.000  O
  O95      1.0000 0.91199  0.61543  0.55441  Biso   1.000  O
  O96      1.0000 0.81552  0.71189  0.65088  Biso   1.000  O
  O97      1.0000 0.42793  0.34001  0.02276  Biso   1.000  O
  O98      1.0000 0.52439  0.24355  0.92629  Biso   1.000  O
  O99      1.0000 0.54013  0.71169  0.92764  Biso   1.000  O
  O100     1.0000 0.42910  0.33880  0.31839  Biso   1.000  O
  O101     1.0000 0.52420  0.24370  0.41350  Biso   1.000  O
  O102     1.0000 0.44384  0.61540  0.02393  Biso   1.000  O
  O103     1.0000 0.80295  0.24059  0.41448  Biso   1.000  O
  O104     1.0000 0.89924  0.33688  0.31819  Biso   1.000  O
  O105     1.0000 0.80115  0.24238  0.65090  Biso   1.000  O
  O106     1.0000 0.19171  0.86755  0.02574  Biso   1.000  O
