data_image0
_cell_length_a       18.283
_cell_length_b       18.283
_cell_length_c       18.283
_cell_angle_alpha    60
_cell_angle_beta     60
_cell_angle_gamma    60

loop_
  _atom_site_label
  _atom_site_occupancy
  _atom_site_fract_x
  _atom_site_fract_y
  _atom_site_fract_z
  _atom_site_thermal_displace_type
  _atom_site_B_iso_or_equiv
  _atom_site_type_symbol
  Zn1      1.0000 0.20657  0.38031  0.20656  Biso   1.000  Zn
  Zn2      1.0000 0.38032  0.20656  0.20656  Biso   1.000  Zn
  Zn3      1.0000 0.20657  0.20656  0.20656  Biso   1.000  Zn
  Zn4      1.0000 0.20657  0.20656  0.38031  Biso   1.000  Zn
  Zn5      1.0000 0.61968  0.79344  0.79344  Biso   1.000  Zn
  Zn6      1.0000 0.79343  0.61969  0.79344  Biso   1.000  Zn
  Zn7      1.0000 0.79343  0.79344  0.79344  Biso   1.000  Zn
  Zn8      1.0000 0.79343  0.79344  0.61969  Biso   1.000  Zn
  H1       1.0000 0.04500  0.56540  0.04500  Biso   1.000  H
  H2       1.0000 0.56540  0.04500  0.34460  Biso   1.000  H
  H3       1.0000 0.04500  0.34460  0.04500  Biso   1.000  H
  H4       1.0000 0.34460  0.04500  0.56540  Biso   1.000  H
  H5       1.0000 0.04500  0.04500  0.34460  Biso   1.000  H
  H6       1.0000 0.56540  0.34460  0.04500  Biso   1.000  H
  H7       1.0000 0.04500  0.04500  0.56540  Biso   1.000  H
  H8       1.0000 0.34460  0.56540  0.04500  Biso   1.000  H
  H9       1.0000 0.04500  0.34460  0.56540  Biso   1.000  H
  H10      1.0000 0.56540  0.04500  0.04500  Biso   1.000  H
  H11      1.0000 0.04500  0.56540  0.34460  Biso   1.000  H
  H12      1.0000 0.34460  0.04500  0.04500  Biso   1.000  H
  H13      1.0000 0.43460  0.95500  0.95500  Biso   1.000  H
  H14      1.0000 0.95500  0.43460  0.65540  Biso   1.000  H
  H15      1.0000 0.65540  0.95500  0.95500  Biso   1.000  H
  H16      1.0000 0.95500  0.65540  0.43460  Biso   1.000  H
  H17      1.0000 0.95500  0.95500  0.65540  Biso   1.000  H
  H18      1.0000 0.65540  0.43460  0.95500  Biso   1.000  H
  H19      1.0000 0.95500  0.95500  0.43460  Biso   1.000  H
  H20      1.0000 0.43460  0.65540  0.95500  Biso   1.000  H
  H21      1.0000 0.65540  0.95500  0.43460  Biso   1.000  H
  H22      1.0000 0.95500  0.43460  0.95500  Biso   1.000  H
  H23      1.0000 0.43460  0.95500  0.65540  Biso   1.000  H
  H24      1.0000 0.95500  0.65540  0.95500  Biso   1.000  H
  C1       1.0000 0.02670  0.53864  0.02670  Biso   1.000  C
  C2       1.0000 0.53864  0.02670  0.40796  Biso   1.000  C
  C3       1.0000 0.02670  0.40796  0.02670  Biso   1.000  C
  C4       1.0000 0.40796  0.02670  0.53864  Biso   1.000  C
  C5       1.0000 0.02670  0.02670  0.40796  Biso   1.000  C
  C6       1.0000 0.53864  0.40796  0.02670  Biso   1.000  C
  C7       1.0000 0.02670  0.02670  0.53864  Biso   1.000  C
  C8       1.0000 0.40796  0.53864  0.02670  Biso   1.000  C
  C9       1.0000 0.02670  0.40796  0.53864  Biso   1.000  C
  C10      1.0000 0.53864  0.02670  0.02670  Biso   1.000  C
  C11      1.0000 0.02670  0.53864  0.40796  Biso   1.000  C
  C12      1.0000 0.40796  0.02670  0.02670  Biso   1.000  C
  C13      1.0000 0.46136  0.97330  0.97330  Biso   1.000  C
  C14      1.0000 0.97330  0.46136  0.59204  Biso   1.000  C
  C15      1.0000 0.59204  0.97330  0.97330  Biso   1.000  C
  C16      1.0000 0.97330  0.59204  0.46136  Biso   1.000  C
  C17      1.0000 0.97330  0.97330  0.59204  Biso   1.000  C
  C18      1.0000 0.59204  0.46136  0.97330  Biso   1.000  C
  C19      1.0000 0.97330  0.97330  0.46136  Biso   1.000  C
  C20      1.0000 0.46136  0.59204  0.97330  Biso   1.000  C
  C21      1.0000 0.59204  0.97330  0.46136  Biso   1.000  C
  C22      1.0000 0.97330  0.46136  0.97330  Biso   1.000  C
  C23      1.0000 0.46136  0.97330  0.59204  Biso   1.000  C
  C24      1.0000 0.97330  0.59204  0.97330  Biso   1.000  C
  C25      1.0000 0.11148  0.38852  0.11148  Biso   1.000  C
  C26      1.0000 0.05372  0.44628  0.05372  Biso   1.000  C
  C27      1.0000 0.38852  0.11148  0.38852  Biso   1.000  C
  C28      1.0000 0.44628  0.05372  0.44628  Biso   1.000  C
  C29      1.0000 0.11148  0.11148  0.38852  Biso   1.000  C
  C30      1.0000 0.05372  0.05372  0.44628  Biso   1.000  C
  C31      1.0000 0.38852  0.38852  0.11148  Biso   1.000  C
  C32      1.0000 0.44628  0.44628  0.05372  Biso   1.000  C
  C33      1.0000 0.11148  0.38852  0.38852  Biso   1.000  C
  C34      1.0000 0.05372  0.44628  0.44628  Biso   1.000  C
  C35      1.0000 0.38852  0.11148  0.11148  Biso   1.000  C
  C36      1.0000 0.44628  0.05372  0.05372  Biso   1.000  C
  C37      1.0000 0.61148  0.88852  0.88852  Biso   1.000  C
  C38      1.0000 0.55372  0.94628  0.94628  Biso   1.000  C
  C39      1.0000 0.88852  0.61148  0.61148  Biso   1.000  C
  C40      1.0000 0.94628  0.55372  0.55372  Biso   1.000  C
  C41      1.0000 0.88852  0.88852  0.61148  Biso   1.000  C
  C42      1.0000 0.94628  0.94628  0.55372  Biso   1.000  C
  C43      1.0000 0.61148  0.61148  0.88852  Biso   1.000  C
  C44      1.0000 0.55372  0.55372  0.94628  Biso   1.000  C
  C45      1.0000 0.61148  0.88852  0.61148  Biso   1.000  C
  C46      1.0000 0.55372  0.94628  0.55372  Biso   1.000  C
  C47      1.0000 0.88852  0.61148  0.88852  Biso   1.000  C
  C48      1.0000 0.94628  0.55372  0.94628  Biso   1.000  C
  O1       1.0000 0.25000  0.25000  0.25000  Biso   1.000  O
  O2       1.0000 0.75000  0.75000  0.75000  Biso   1.000  O
  O3       1.0000 0.13373  0.42751  0.13373  Biso   1.000  O
  O4       1.0000 0.42751  0.13373  0.30503  Biso   1.000  O
  O5       1.0000 0.13373  0.30503  0.13373  Biso   1.000  O
  O6       1.0000 0.30503  0.13373  0.42751  Biso   1.000  O
  O7       1.0000 0.13373  0.13373  0.30503  Biso   1.000  O
  O8       1.0000 0.42751  0.30503  0.13373  Biso   1.000  O
  O9       1.0000 0.13373  0.13373  0.42751  Biso   1.000  O
  O10      1.0000 0.30503  0.42751  0.13373  Biso   1.000  O
  O11      1.0000 0.13373  0.30503  0.42751  Biso   1.000  O
  O12      1.0000 0.42751  0.13373  0.13373  Biso   1.000  O
  O13      1.0000 0.13373  0.42751  0.30503  Biso   1.000  O
  O14      1.0000 0.30503  0.13373  0.13373  Biso   1.000  O
  O15      1.0000 0.57249  0.86627  0.86627  Biso   1.000  O
  O16      1.0000 0.86627  0.57249  0.69497  Biso   1.000  O
  O17      1.0000 0.69497  0.86627  0.86627  Biso   1.000  O
  O18      1.0000 0.86627  0.69497  0.57249  Biso   1.000  O
  O19      1.0000 0.86627  0.86627  0.69497  Biso   1.000  O
  O20      1.0000 0.69497  0.57249  0.86627  Biso   1.000  O
  O21      1.0000 0.86627  0.86627  0.57249  Biso   1.000  O
  O22      1.0000 0.57249  0.69497  0.86627  Biso   1.000  O
  O23      1.0000 0.69497  0.86627  0.57249  Biso   1.000  O
  O24      1.0000 0.86627  0.57249  0.86627  Biso   1.000  O
  O25      1.0000 0.57249  0.86627  0.69497  Biso   1.000  O
  O26      1.0000 0.86627  0.69497  0.86627  Biso   1.000  O
  Zn9      1.0000 0.05618  0.49363  0.19485  Biso   1.000  Zn
  Zn10     1.0000 0.05613  0.49368  0.36562  Biso   1.000  Zn
  Zn11     1.0000 0.05618  0.66446  0.19485  Biso   1.000  Zn
  Zn12     1.0000 0.22695  0.49368  0.19480  Biso   1.000  Zn
  Zn13     1.0000 0.64880  0.08635  0.77296  Biso   1.000  Zn
  Zn14     1.0000 0.64884  0.08630  0.60219  Biso   1.000  Zn
  Zn15     1.0000 0.64880  0.91552  0.77296  Biso   1.000  Zn
  Zn16     1.0000 0.47802  0.08630  0.77301  Biso   1.000  Zn
  C49      1.0000 0.87930  0.31582  0.39283  Biso   1.000  C
  C50      1.0000 0.89182  0.69185  0.00327  Biso   1.000  C
  C51      1.0000 0.26868  0.31521  0.00425  Biso   1.000  C
  C52      1.0000 0.87832  0.31680  0.52233  Biso   1.000  C
  C53      1.0000 0.26887  0.31482  0.52333  Biso   1.000  C
  C54      1.0000 0.89221  0.69167  0.52214  Biso   1.000  C
  C55      1.0000 0.26867  0.83567  0.00347  Biso   1.000  C
  C56      1.0000 0.87910  0.83666  0.00149  Biso   1.000  C
  C57      1.0000 0.88008  0.83549  0.39284  Biso   1.000  C
  C58      1.0000 0.41266  0.69165  0.00249  Biso   1.000  C
  C59      1.0000 0.39916  0.31660  0.39304  Biso   1.000  C
  C60      1.0000 0.39798  0.31757  0.00189  Biso   1.000  C
  C61      1.0000 0.82567  0.26416  0.57498  Biso   1.000  C
  C62      1.0000 0.82766  0.88810  0.95005  Biso   1.000  C
  C63      1.0000 0.45080  0.26475  0.94906  Biso   1.000  C
  C64      1.0000 0.82666  0.26318  0.44548  Biso   1.000  C
  C65      1.0000 0.45060  0.26516  0.44448  Biso   1.000  C
  C66      1.0000 0.82726  0.88831  0.44567  Biso   1.000  C
  C67      1.0000 0.45081  0.75882  0.94984  Biso   1.000  C
  C68      1.0000 0.82588  0.75782  0.95182  Biso   1.000  C
  C69      1.0000 0.82489  0.75902  0.57497  Biso   1.000  C
  C70      1.0000 0.32131  0.88831  0.95083  Biso   1.000  C
  C71      1.0000 0.32032  0.26338  0.57477  Biso   1.000  C
  C72      1.0000 0.32150  0.26239  0.95143  Biso   1.000  C
  C73      1.0000 0.90551  0.34301  0.43088  Biso   1.000  C
  C74      1.0000 0.96333  0.40084  0.37306  Biso   1.000  C
  C75      1.0000 0.32122  0.72969  0.02968  Biso   1.000  C
  C76      1.0000 0.23438  0.67189  0.10200  Biso   1.000  C
  C77      1.0000 0.79947  0.23697  0.53693  Biso   1.000  C
  C78      1.0000 0.74164  0.17914  0.59476  Biso   1.000  C
  C79      1.0000 0.41276  0.85026  0.92364  Biso   1.000  C
  C80      1.0000 0.47059  0.90809  0.86581  Biso   1.000  C
  C81      1.0000 0.30692  0.34280  0.02948  Biso   1.000  C
  C82      1.0000 0.23486  0.40037  0.10153  Biso   1.000  C
  C83      1.0000 0.90531  0.74443  0.43108  Biso   1.000  C
  C84      1.0000 0.96286  0.67235  0.37353  Biso   1.000  C
  C85      1.0000 0.41256  0.23716  0.92384  Biso   1.000  C
  C86      1.0000 0.47012  0.17961  0.86628  Biso   1.000  C
  C87      1.0000 0.79966  0.85007  0.53673  Biso   1.000  C
  C88      1.0000 0.74211  0.90762  0.59428  Biso   1.000  C
  C89      1.0000 0.90512  0.74462  0.02929  Biso   1.000  C
  C90      1.0000 0.96266  0.67256  0.10133  Biso   1.000  C
  C91      1.0000 0.30711  0.34262  0.43128  Biso   1.000  C
  C92      1.0000 0.23506  0.40017  0.37373  Biso   1.000  C
  C93      1.0000 0.79986  0.84987  0.92403  Biso   1.000  C
  C94      1.0000 0.74231  0.90742  0.86648  Biso   1.000  C
  C95      1.0000 0.41236  0.23736  0.53653  Biso   1.000  C
  C96      1.0000 0.46992  0.17981  0.59408  Biso   1.000  C
  O27      1.0000 0.98403  0.42311  0.29004  Biso   1.000  O
  O28      1.0000 0.15219  0.42120  0.12427  Biso   1.000  O
  O29      1.0000 0.98444  0.58846  0.12392  Biso   1.000  O
  O30      1.0000 0.98561  0.42153  0.41311  Biso   1.000  O
  O31      1.0000 0.98370  0.58969  0.41261  Biso   1.000  O
  O32      1.0000 0.15095  0.42195  0.41346  Biso   1.000  O
  O33      1.0000 0.15137  0.71194  0.12270  Biso   1.000  O
  O34      1.0000 0.98561  0.71144  0.29086  Biso   1.000  O
  O35      1.0000 0.98525  0.71229  0.12311  Biso   1.000  O
  O36      1.0000 0.27444  0.58887  0.12427  Biso   1.000  O
  O37      1.0000 0.27394  0.42312  0.12236  Biso   1.000  O
  O38      1.0000 0.27479  0.42276  0.28962  Biso   1.000  O
  O39      1.0000 0.72094  0.15687  0.67777  Biso   1.000  O
  O40      1.0000 0.55278  0.15878  0.84354  Biso   1.000  O
  O41      1.0000 0.72053  0.99152  0.84389  Biso   1.000  O
  O42      1.0000 0.71937  0.15845  0.55470  Biso   1.000  O
  O43      1.0000 0.72128  0.99029  0.55520  Biso   1.000  O
  O44      1.0000 0.55402  0.15803  0.55435  Biso   1.000  O
  O45      1.0000 0.55361  0.86804  0.84511  Biso   1.000  O
  O46      1.0000 0.71937  0.86854  0.67695  Biso   1.000  O
  O47      1.0000 0.71972  0.86769  0.84470  Biso   1.000  O
  O48      1.0000 0.43054  0.99111  0.84354  Biso   1.000  O
  O49      1.0000 0.43103  0.15686  0.84545  Biso   1.000  O
  O50      1.0000 0.43018  0.15722  0.67819  Biso   1.000  O
  O51      1.0000 0.09886  0.53636  0.23753  Biso   1.000  O
  O52      1.0000 0.60611  0.04362  0.73028  Biso   1.000  O
  H25      1.0000 0.91298  0.61637  0.02589  Biso   1.000  H
  H26      1.0000 0.90172  0.86837  0.02265  Biso   1.000  H
  H27      1.0000 0.80650  0.96359  0.92743  Biso   1.000  H
  H28      1.0000 0.81776  0.71158  0.93067  Biso   1.000  H
  H29      1.0000 0.90294  0.86721  0.31736  Biso   1.000  H
  H30      1.0000 0.80635  0.96379  0.41395  Biso   1.000  H
  H31      1.0000 0.19320  0.33611  0.02712  Biso   1.000  H
  H32      1.0000 0.28979  0.23952  0.93053  Biso   1.000  H
  H33      1.0000 0.89979  0.33909  0.55405  Biso   1.000  H
  H34      1.0000 0.19338  0.33598  0.55504  Biso   1.000  H
  H35      1.0000 0.28959  0.96380  0.92935  Biso   1.000  H
  H36      1.0000 0.28860  0.24076  0.65026  Biso   1.000  H
  H37      1.0000 0.91312  0.61619  0.55386  Biso   1.000  H
  H38      1.0000 0.81653  0.71277  0.65045  Biso   1.000  H
  H39      1.0000 0.42969  0.34043  0.02279  Biso   1.000  H
  H40      1.0000 0.52628  0.24385  0.92620  Biso   1.000  H
  H41      1.0000 0.54080  0.71257  0.92755  Biso   1.000  H
  H42      1.0000 0.43087  0.33922  0.31755  Biso   1.000  H
  H43      1.0000 0.52609  0.24400  0.41277  Biso   1.000  H
  H44      1.0000 0.44439  0.61616  0.02396  Biso   1.000  H
  H45      1.0000 0.80518  0.24089  0.41376  Biso   1.000  H
  H46      1.0000 0.90159  0.33730  0.31734  Biso   1.000  H
  H47      1.0000 0.80338  0.24268  0.65047  Biso   1.000  H
  H48      1.0000 0.19318  0.86739  0.02577  Biso   1.000  H
