data_image0
_cell_length_a       18.2965
_cell_length_b       18.2965
_cell_length_c       18.2965
_cell_angle_alpha    60
_cell_angle_beta     60
_cell_angle_gamma    60

loop_
  _atom_site_label
  _atom_site_occupancy
  _atom_site_fract_x
  _atom_site_fract_y
  _atom_site_fract_z
  _atom_site_thermal_displace_type
  _atom_site_B_iso_or_equiv
  _atom_site_type_symbol
  Zn1      1.0000 0.29344  0.29343  0.11970  Biso   1.000  Zn
  Zn2      1.0000 0.29344  0.29343  0.29343  Biso   1.000  Zn
  Zn3      1.0000 0.11971  0.29343  0.29343  Biso   1.000  Zn
  Zn4      1.0000 0.29344  0.11970  0.29343  Biso   1.000  Zn
  Zn5      1.0000 0.70656  0.70657  0.88030  Biso   1.000  Zn
  Zn6      1.0000 0.70656  0.70657  0.70657  Biso   1.000  Zn
  Zn7      1.0000 0.70656  0.88030  0.70657  Biso   1.000  Zn
  Zn8      1.0000 0.88029  0.70657  0.70657  Biso   1.000  Zn
  H1       1.0000 0.45520  0.45520  0.93480  Biso   1.000  H
  H2       1.0000 0.45520  0.45520  0.15480  Biso   1.000  H
  H3       1.0000 0.93480  0.15480  0.45520  Biso   1.000  H
  H4       1.0000 0.15480  0.93480  0.45520  Biso   1.000  H
  H5       1.0000 0.45520  0.93480  0.15480  Biso   1.000  H
  H6       1.0000 0.45520  0.15480  0.93480  Biso   1.000  H
  H7       1.0000 0.93480  0.45520  0.45520  Biso   1.000  H
  H8       1.0000 0.15480  0.45520  0.45520  Biso   1.000  H
  H9       1.0000 0.45520  0.15480  0.45520  Biso   1.000  H
  H10      1.0000 0.45520  0.93480  0.45520  Biso   1.000  H
  H11      1.0000 0.93480  0.45520  0.15480  Biso   1.000  H
  H12      1.0000 0.15480  0.45520  0.93480  Biso   1.000  H
  H13      1.0000 0.54480  0.54480  0.06520  Biso   1.000  H
  H14      1.0000 0.54480  0.54480  0.84520  Biso   1.000  H
  H15      1.0000 0.84520  0.06520  0.54480  Biso   1.000  H
  H16      1.0000 0.06520  0.84520  0.54480  Biso   1.000  H
  H17      1.0000 0.06520  0.54480  0.84520  Biso   1.000  H
  H18      1.0000 0.84520  0.54480  0.06520  Biso   1.000  H
  H19      1.0000 0.54480  0.06520  0.54480  Biso   1.000  H
  H20      1.0000 0.54480  0.84520  0.54480  Biso   1.000  H
  H21      1.0000 0.84520  0.54480  0.54480  Biso   1.000  H
  H22      1.0000 0.06520  0.54480  0.54480  Biso   1.000  H
  H23      1.0000 0.54480  0.06520  0.84520  Biso   1.000  H
  H24      1.0000 0.54480  0.84520  0.06520  Biso   1.000  H
  C1       1.0000 0.47339  0.47339  0.96175  Biso   1.000  C
  C2       1.0000 0.47339  0.47339  0.09147  Biso   1.000  C
  C3       1.0000 0.96175  0.09147  0.47339  Biso   1.000  C
  C4       1.0000 0.09147  0.96175  0.47339  Biso   1.000  C
  C5       1.0000 0.47339  0.96175  0.09147  Biso   1.000  C
  C6       1.0000 0.47339  0.09147  0.96175  Biso   1.000  C
  C7       1.0000 0.96175  0.47339  0.47339  Biso   1.000  C
  C8       1.0000 0.09147  0.47339  0.47339  Biso   1.000  C
  C9       1.0000 0.47339  0.09147  0.47339  Biso   1.000  C
  C10      1.0000 0.47339  0.96175  0.47339  Biso   1.000  C
  C11      1.0000 0.96175  0.47339  0.09147  Biso   1.000  C
  C12      1.0000 0.09147  0.47339  0.96175  Biso   1.000  C
  C13      1.0000 0.52661  0.52661  0.03825  Biso   1.000  C
  C14      1.0000 0.52661  0.52661  0.90853  Biso   1.000  C
  C15      1.0000 0.90853  0.03825  0.52661  Biso   1.000  C
  C16      1.0000 0.03825  0.90853  0.52661  Biso   1.000  C
  C17      1.0000 0.03825  0.52661  0.90853  Biso   1.000  C
  C18      1.0000 0.90853  0.52661  0.03825  Biso   1.000  C
  C19      1.0000 0.52661  0.03825  0.52661  Biso   1.000  C
  C20      1.0000 0.52661  0.90853  0.52661  Biso   1.000  C
  C21      1.0000 0.90853  0.52661  0.52661  Biso   1.000  C
  C22      1.0000 0.03825  0.52661  0.52661  Biso   1.000  C
  C23      1.0000 0.52661  0.03825  0.90853  Biso   1.000  C
  C24      1.0000 0.52661  0.90853  0.03825  Biso   1.000  C
  C25      1.0000 0.38840  0.38840  0.11160  Biso   1.000  C
  C26      1.0000 0.44637  0.44637  0.05363  Biso   1.000  C
  C27      1.0000 0.11160  0.11160  0.38840  Biso   1.000  C
  C28      1.0000 0.05363  0.05363  0.44637  Biso   1.000  C
  C29      1.0000 0.38840  0.11160  0.11160  Biso   1.000  C
  C30      1.0000 0.44637  0.05363  0.05363  Biso   1.000  C
  C31      1.0000 0.11160  0.38840  0.38840  Biso   1.000  C
  C32      1.0000 0.05363  0.44637  0.44637  Biso   1.000  C
  C33      1.0000 0.38840  0.11160  0.38840  Biso   1.000  C
  C34      1.0000 0.44637  0.05363  0.44637  Biso   1.000  C
  C35      1.0000 0.11160  0.38840  0.11160  Biso   1.000  C
  C36      1.0000 0.05363  0.44637  0.05363  Biso   1.000  C
  C37      1.0000 0.61160  0.61160  0.88840  Biso   1.000  C
  C38      1.0000 0.55363  0.55363  0.94637  Biso   1.000  C
  C39      1.0000 0.88840  0.88840  0.61160  Biso   1.000  C
  C40      1.0000 0.94637  0.94637  0.55363  Biso   1.000  C
  C41      1.0000 0.88840  0.61160  0.88840  Biso   1.000  C
  C42      1.0000 0.94637  0.55363  0.94637  Biso   1.000  C
  C43      1.0000 0.61160  0.88840  0.61160  Biso   1.000  C
  C44      1.0000 0.55363  0.94637  0.55363  Biso   1.000  C
  C45      1.0000 0.88840  0.61160  0.61160  Biso   1.000  C
  C46      1.0000 0.94637  0.55363  0.55363  Biso   1.000  C
  C47      1.0000 0.61160  0.88840  0.88840  Biso   1.000  C
  C48      1.0000 0.55363  0.94637  0.94637  Biso   1.000  C
  O1       1.0000 0.25000  0.25000  0.25000  Biso   1.000  O
  O2       1.0000 0.75000  0.75000  0.75000  Biso   1.000  O
  O3       1.0000 0.36613  0.36613  0.07281  Biso   1.000  O
  O4       1.0000 0.36613  0.36613  0.19493  Biso   1.000  O
  O5       1.0000 0.07281  0.19493  0.36613  Biso   1.000  O
  O6       1.0000 0.19493  0.07281  0.36613  Biso   1.000  O
  O7       1.0000 0.36613  0.07281  0.19493  Biso   1.000  O
  O8       1.0000 0.36613  0.19493  0.07281  Biso   1.000  O
  O9       1.0000 0.07281  0.36613  0.36613  Biso   1.000  O
  O10      1.0000 0.19493  0.36613  0.36613  Biso   1.000  O
  O11      1.0000 0.36613  0.19493  0.36613  Biso   1.000  O
  O12      1.0000 0.36613  0.07281  0.36613  Biso   1.000  O
  O13      1.0000 0.07281  0.36613  0.19493  Biso   1.000  O
  O14      1.0000 0.19493  0.36613  0.07281  Biso   1.000  O
  O15      1.0000 0.63387  0.63387  0.92719  Biso   1.000  O
  O16      1.0000 0.63387  0.63387  0.80507  Biso   1.000  O
  O17      1.0000 0.80507  0.92719  0.63387  Biso   1.000  O
  O18      1.0000 0.92719  0.80507  0.63387  Biso   1.000  O
  O19      1.0000 0.92719  0.63387  0.80507  Biso   1.000  O
  O20      1.0000 0.80507  0.63387  0.92719  Biso   1.000  O
  O21      1.0000 0.63387  0.92719  0.63387  Biso   1.000  O
  O22      1.0000 0.63387  0.80507  0.63387  Biso   1.000  O
  O23      1.0000 0.80507  0.63387  0.63387  Biso   1.000  O
  O24      1.0000 0.92719  0.63387  0.63387  Biso   1.000  O
  O25      1.0000 0.63387  0.92719  0.80507  Biso   1.000  O
  O26      1.0000 0.63387  0.80507  0.92719  Biso   1.000  O
  Zn9      1.0000 0.98129  0.59432  0.26244  Biso   1.000  Zn
  Zn10     1.0000 0.98124  0.59437  0.43296  Biso   1.000  Zn
  Zn11     1.0000 0.98129  0.76489  0.26244  Biso   1.000  Zn
  Zn12     1.0000 0.15181  0.59437  0.26239  Biso   1.000  Zn
  Zn13     1.0000 0.57451  0.18764  0.83970  Biso   1.000  Zn
  Zn14     1.0000 0.57455  0.18759  0.66918  Biso   1.000  Zn
  Zn15     1.0000 0.57451  0.01707  0.83970  Biso   1.000  Zn
  Zn16     1.0000 0.40398  0.18759  0.83975  Biso   1.000  Zn
  C49      1.0000 0.80467  0.41677  0.46013  Biso   1.000  C
  C50      1.0000 0.81865  0.79225  0.06967  Biso   1.000  C
  C51      1.0000 0.19495  0.41616  0.07065  Biso   1.000  C
  C52      1.0000 0.80369  0.41776  0.58944  Biso   1.000  C
  C53      1.0000 0.19514  0.41578  0.59043  Biso   1.000  C
  C54      1.0000 0.81904  0.79207  0.58925  Biso   1.000  C
  C55      1.0000 0.19494  0.93733  0.06987  Biso   1.000  C
  C56      1.0000 0.80447  0.93832  0.06789  Biso   1.000  C
  C57      1.0000 0.80545  0.93715  0.46014  Biso   1.000  C
  C58      1.0000 0.34020  0.79204  0.06889  Biso   1.000  C
  C59      1.0000 0.32523  0.41755  0.46034  Biso   1.000  C
  C60      1.0000 0.32406  0.41852  0.06829  Biso   1.000  C
  C61      1.0000 0.75112  0.36519  0.64201  Biso   1.000  C
  C62      1.0000 0.75310  0.98969  0.01653  Biso   1.000  C
  C63      1.0000 0.37680  0.36578  0.01554  Biso   1.000  C
  C64      1.0000 0.75210  0.36421  0.51270  Biso   1.000  C
  C65      1.0000 0.37660  0.36618  0.51171  Biso   1.000  C
  C66      1.0000 0.75270  0.98990  0.51289  Biso   1.000  C
  C67      1.0000 0.37681  0.86060  0.01632  Biso   1.000  C
  C68      1.0000 0.75133  0.85960  0.01830  Biso   1.000  C
  C69      1.0000 0.75034  0.86079  0.64200  Biso   1.000  C
  C70      1.0000 0.24751  0.98990  0.01730  Biso   1.000  C
  C71      1.0000 0.24651  0.36441  0.64180  Biso   1.000  C
  C72      1.0000 0.24770  0.36342  0.01790  Biso   1.000  C
  C73      1.0000 0.83084  0.44392  0.49813  Biso   1.000  C
  C74      1.0000 0.88858  0.50167  0.44038  Biso   1.000  C
  C75      1.0000 0.24889  0.83004  0.09604  Biso   1.000  C
  C76      1.0000 0.15923  0.77232  0.16973  Biso   1.000  C
  C77      1.0000 0.72496  0.33804  0.60401  Biso   1.000  C
  C78      1.0000 0.66721  0.28030  0.66176  Biso   1.000  C
  C79      1.0000 0.33882  0.95190  0.99015  Biso   1.000  C
  C80      1.0000 0.39656  0.00965  0.93241  Biso   1.000  C
  C81      1.0000 0.23313  0.44371  0.09584  Biso   1.000  C
  C82      1.0000 0.15970  0.50120  0.16926  Biso   1.000  C
  C83      1.0000 0.83064  0.84623  0.49832  Biso   1.000  C
  C84      1.0000 0.88811  0.77278  0.44086  Biso   1.000  C
  C85      1.0000 0.33862  0.33823  0.99035  Biso   1.000  C
  C86      1.0000 0.39609  0.28076  0.93288  Biso   1.000  C
  C87      1.0000 0.72515  0.95171  0.60381  Biso   1.000  C
  C88      1.0000 0.66768  0.00918  0.66128  Biso   1.000  C
  C89      1.0000 0.83045  0.84641  0.09564  Biso   1.000  C
  C90      1.0000 0.88791  0.77299  0.16906  Biso   1.000  C
  C91      1.0000 0.23332  0.44353  0.49852  Biso   1.000  C
  C92      1.0000 0.15990  0.50100  0.44105  Biso   1.000  C
  C93      1.0000 0.72535  0.95151  0.99055  Biso   1.000  C
  C94      1.0000 0.66788  0.00898  0.93308  Biso   1.000  C
  C95      1.0000 0.33842  0.33843  0.60362  Biso   1.000  C
  C96      1.0000 0.39589  0.28097  0.66109  Biso   1.000  C
  O27      1.0000 0.90925  0.52391  0.35749  Biso   1.000  O
  O28      1.0000 0.07716  0.52200  0.19197  Biso   1.000  O
  O29      1.0000 0.90966  0.68901  0.19161  Biso   1.000  O
  O30      1.0000 0.91082  0.52233  0.48037  Biso   1.000  O
  O31      1.0000 0.90891  0.69024  0.47988  Biso   1.000  O
  O32      1.0000 0.07592  0.52274  0.48073  Biso   1.000  O
  O33      1.0000 0.07634  0.81231  0.19039  Biso   1.000  O
  O34      1.0000 0.91082  0.81181  0.35831  Biso   1.000  O
  O35      1.0000 0.91046  0.81266  0.19081  Biso   1.000  O
  O36      1.0000 0.19922  0.68942  0.19197  Biso   1.000  O
  O37      1.0000 0.19873  0.52391  0.19006  Biso   1.000  O
  O38      1.0000 0.19958  0.52355  0.35707  Biso   1.000  O
  O39      1.0000 0.64655  0.25806  0.74465  Biso   1.000  O
  O40      1.0000 0.47863  0.25996  0.91017  Biso   1.000  O
  O41      1.0000 0.64614  0.09295  0.91052  Biso   1.000  O
  O42      1.0000 0.64497  0.25963  0.62176  Biso   1.000  O
  O43      1.0000 0.64688  0.09172  0.62226  Biso   1.000  O
  O44      1.0000 0.47987  0.25922  0.62141  Biso   1.000  O
  O45      1.0000 0.47946  0.96966  0.91174  Biso   1.000  O
  O46      1.0000 0.64497  0.97015  0.74383  Biso   1.000  O
  O47      1.0000 0.64533  0.96930  0.91133  Biso   1.000  O
  O48      1.0000 0.35657  0.09254  0.91017  Biso   1.000  O
  O49      1.0000 0.35706  0.25805  0.91208  Biso   1.000  O
  O50      1.0000 0.35621  0.25841  0.74507  Biso   1.000  O
  O51      1.0000 0.02391  0.63699  0.30506  Biso   1.000  O
  O52      1.0000 0.53189  0.14497  0.79708  Biso   1.000  O
  H25      1.0000 0.83978  0.71688  0.09225  Biso   1.000  H
  H26      1.0000 0.82705  0.96999  0.08902  Biso   1.000  H
  H27      1.0000 0.73197  0.06506  0.99394  Biso   1.000  H
  H28      1.0000 0.74470  0.81195  0.99717  Biso   1.000  H
  H29      1.0000 0.82828  0.96882  0.38477  Biso   1.000  H
  H30      1.0000 0.73183  0.06526  0.48122  Biso   1.000  H
  H31      1.0000 0.11958  0.43703  0.09348  Biso   1.000  H
  H32      1.0000 0.21603  0.34059  0.99703  Biso   1.000  H
  H33      1.0000 0.82513  0.44001  0.62111  Biso   1.000  H
  H34      1.0000 0.11977  0.43690  0.62210  Biso   1.000  H
  H35      1.0000 0.21583  0.06527  0.99586  Biso   1.000  H
  H36      1.0000 0.21485  0.34183  0.71718  Biso   1.000  H
  H37      1.0000 0.83991  0.71670  0.62092  Biso   1.000  H
  H38      1.0000 0.74347  0.81314  0.71736  Biso   1.000  H
  H39      1.0000 0.35572  0.44135  0.08916  Biso   1.000  H
  H40      1.0000 0.45217  0.34491  0.99271  Biso   1.000  H
  H41      1.0000 0.46814  0.81294  0.99406  Biso   1.000  H
  H42      1.0000 0.35690  0.44014  0.38496  Biso   1.000  H
  H43      1.0000 0.45198  0.34506  0.48004  Biso   1.000  H
  H44      1.0000 0.37187  0.71667  0.09033  Biso   1.000  H
  H45      1.0000 0.73066  0.34195  0.48102  Biso   1.000  H
  H46      1.0000 0.82693  0.43822  0.38475  Biso   1.000  H
  H47      1.0000 0.72886  0.34374  0.71738  Biso   1.000  H
  H48      1.0000 0.11956  0.96900  0.09213  Biso   1.000  H
