data_image0
_cell_length_a       18.3017
_cell_length_b       18.3017
_cell_length_c       18.3017
_cell_angle_alpha    60
_cell_angle_beta     60
_cell_angle_gamma    60

loop_
  _atom_site_label
  _atom_site_occupancy
  _atom_site_fract_x
  _atom_site_fract_y
  _atom_site_fract_z
  _atom_site_thermal_displace_type
  _atom_site_B_iso_or_equiv
  _atom_site_type_symbol
  C1       1.0000 0.29342  0.29343  0.11972  Biso   1.000  C
  C2       1.0000 0.29343  0.29342  0.29343  Biso   1.000  C
  C3       1.0000 0.11972  0.29343  0.29342  Biso   1.000  C
  C4       1.0000 0.29343  0.11972  0.29343  Biso   1.000  C
  C5       1.0000 0.70657  0.70658  0.88028  Biso   1.000  C
  C6       1.0000 0.70657  0.70658  0.70657  Biso   1.000  C
  C7       1.0000 0.70658  0.88028  0.70657  Biso   1.000  C
  C8       1.0000 0.88029  0.70657  0.70657  Biso   1.000  C
  C9       1.0000 0.45510  0.45510  0.93470  Biso   1.000  C
  C10      1.0000 0.45510  0.45510  0.15510  Biso   1.000  C
  C11      1.0000 0.93470  0.15510  0.45510  Biso   1.000  C
  C12      1.0000 0.15510  0.93470  0.45510  Biso   1.000  C
  C13      1.0000 0.45510  0.93470  0.15510  Biso   1.000  C
  C14      1.0000 0.45510  0.15510  0.93470  Biso   1.000  C
  C15      1.0000 0.93470  0.45510  0.45510  Biso   1.000  C
  C16      1.0000 0.15510  0.45510  0.45510  Biso   1.000  C
  C17      1.0000 0.45510  0.15510  0.45510  Biso   1.000  C
  C18      1.0000 0.45510  0.93470  0.45510  Biso   1.000  C
  C19      1.0000 0.93470  0.45510  0.15510  Biso   1.000  C
  C20      1.0000 0.15510  0.45510  0.93470  Biso   1.000  C
  C21      1.0000 0.54490  0.54490  0.06530  Biso   1.000  C
  C22      1.0000 0.54490  0.54490  0.84490  Biso   1.000  C
  C23      1.0000 0.84490  0.06530  0.54490  Biso   1.000  C
  C24      1.0000 0.06530  0.84490  0.54490  Biso   1.000  C
  C25      1.0000 0.06530  0.54490  0.84490  Biso   1.000  C
  C26      1.0000 0.84490  0.54490  0.06530  Biso   1.000  C
  C27      1.0000 0.54490  0.06530  0.54490  Biso   1.000  C
  C28      1.0000 0.54490  0.84490  0.54490  Biso   1.000  C
  C29      1.0000 0.84490  0.54490  0.54490  Biso   1.000  C
  C30      1.0000 0.06530  0.54490  0.54490  Biso   1.000  C
  C31      1.0000 0.54490  0.06530  0.84490  Biso   1.000  C
  C32      1.0000 0.54490  0.84490  0.06530  Biso   1.000  C
  C33      1.0000 0.47334  0.47334  0.96156  Biso   1.000  C
  C34      1.0000 0.47334  0.47334  0.09176  Biso   1.000  C
  C35      1.0000 0.96156  0.09176  0.47334  Biso   1.000  C
  C36      1.0000 0.09176  0.96156  0.47334  Biso   1.000  C
  C37      1.0000 0.47334  0.96156  0.09176  Biso   1.000  C
  C38      1.0000 0.47334  0.09176  0.96156  Biso   1.000  C
  C39      1.0000 0.96156  0.47334  0.47334  Biso   1.000  C
  C40      1.0000 0.09176  0.47334  0.47334  Biso   1.000  C
  C41      1.0000 0.47334  0.09176  0.47334  Biso   1.000  C
  C42      1.0000 0.47334  0.96156  0.47334  Biso   1.000  C
  C43      1.0000 0.96156  0.47334  0.09176  Biso   1.000  C
  C44      1.0000 0.09176  0.47334  0.96156  Biso   1.000  C
  C45      1.0000 0.52666  0.52666  0.03844  Biso   1.000  C
  C46      1.0000 0.52666  0.52666  0.90824  Biso   1.000  C
  C47      1.0000 0.90824  0.03844  0.52666  Biso   1.000  C
  C48      1.0000 0.03844  0.90824  0.52666  Biso   1.000  C
  C49      1.0000 0.03844  0.52666  0.90824  Biso   1.000  C
  C50      1.0000 0.90824  0.52666  0.03844  Biso   1.000  C
  C51      1.0000 0.52666  0.03844  0.52666  Biso   1.000  C
  C52      1.0000 0.52666  0.90824  0.52666  Biso   1.000  C
  C53      1.0000 0.90824  0.52666  0.52666  Biso   1.000  C
  C54      1.0000 0.03844  0.52666  0.52666  Biso   1.000  C
  C55      1.0000 0.52666  0.03844  0.90824  Biso   1.000  C
  C56      1.0000 0.52666  0.90824  0.03844  Biso   1.000  C
  C57      1.0000 0.38843  0.38843  0.11157  Biso   1.000  C
  C58      1.0000 0.44642  0.44642  0.05358  Biso   1.000  C
  C59      1.0000 0.11157  0.11157  0.38843  Biso   1.000  C
  C60      1.0000 0.05358  0.05358  0.44642  Biso   1.000  C
  C61      1.0000 0.38843  0.11157  0.11157  Biso   1.000  C
  C62      1.0000 0.44642  0.05358  0.05358  Biso   1.000  C
  C63      1.0000 0.11157  0.38843  0.38843  Biso   1.000  C
  C64      1.0000 0.05358  0.44642  0.44642  Biso   1.000  C
  C65      1.0000 0.38843  0.11157  0.38843  Biso   1.000  C
  C66      1.0000 0.44642  0.05358  0.44642  Biso   1.000  C
  C67      1.0000 0.11157  0.38843  0.11157  Biso   1.000  C
  C68      1.0000 0.05358  0.44642  0.05358  Biso   1.000  C
  C69      1.0000 0.61157  0.61157  0.88843  Biso   1.000  C
  C70      1.0000 0.55358  0.55358  0.94642  Biso   1.000  C
  C71      1.0000 0.88843  0.88843  0.61157  Biso   1.000  C
  C72      1.0000 0.94642  0.94642  0.55358  Biso   1.000  C
  C73      1.0000 0.88843  0.61157  0.88843  Biso   1.000  C
  C74      1.0000 0.94642  0.55358  0.94642  Biso   1.000  C
  C75      1.0000 0.61157  0.88843  0.61157  Biso   1.000  C
  C76      1.0000 0.55358  0.94642  0.55358  Biso   1.000  C
  C77      1.0000 0.88843  0.61157  0.61157  Biso   1.000  C
  C78      1.0000 0.94642  0.55358  0.55358  Biso   1.000  C
  C79      1.0000 0.61157  0.88843  0.88843  Biso   1.000  C
  C80      1.0000 0.55358  0.94642  0.94642  Biso   1.000  C
  C81      1.0000 0.25000  0.25000  0.25000  Biso   1.000  C
  C82      1.0000 0.75000  0.75000  0.75000  Biso   1.000  C
  C83      1.0000 0.36609  0.36609  0.07295  Biso   1.000  C
  C84      1.0000 0.36609  0.36609  0.19487  Biso   1.000  C
  C85      1.0000 0.07295  0.19487  0.36609  Biso   1.000  C
  C86      1.0000 0.19487  0.07295  0.36609  Biso   1.000  C
  C87      1.0000 0.36609  0.07295  0.19487  Biso   1.000  C
  C88      1.0000 0.36609  0.19487  0.07295  Biso   1.000  C
  C89      1.0000 0.07295  0.36609  0.36609  Biso   1.000  C
  C90      1.0000 0.19487  0.36609  0.36609  Biso   1.000  C
  C91      1.0000 0.36609  0.19487  0.36609  Biso   1.000  C
  C92      1.0000 0.36609  0.07295  0.36609  Biso   1.000  C
  C93      1.0000 0.07295  0.36609  0.19487  Biso   1.000  C
  C94      1.0000 0.19487  0.36609  0.07295  Biso   1.000  C
  C95      1.0000 0.63391  0.63391  0.92705  Biso   1.000  C
  C96      1.0000 0.63391  0.63391  0.80513  Biso   1.000  C
  C97      1.0000 0.80513  0.92705  0.63391  Biso   1.000  C
  C98      1.0000 0.92705  0.80513  0.63391  Biso   1.000  C
  C99      1.0000 0.92705  0.63391  0.80513  Biso   1.000  C
  C100     1.0000 0.80513  0.63391  0.92705  Biso   1.000  C
  C101     1.0000 0.63391  0.92705  0.63391  Biso   1.000  C
  C102     1.0000 0.63391  0.80513  0.63391  Biso   1.000  C
  C103     1.0000 0.80513  0.63391  0.63391  Biso   1.000  C
  C104     1.0000 0.92705  0.63391  0.63391  Biso   1.000  C
  C105     1.0000 0.63391  0.92705  0.80513  Biso   1.000  C
  C106     1.0000 0.63391  0.80513  0.92705  Biso   1.000  C
  O1       1.0000 0.98016  0.59456  0.26286  Biso   1.000  O
  O2       1.0000 0.98011  0.59460  0.43329  Biso   1.000  O
  O3       1.0000 0.98016  0.76503  0.26286  Biso   1.000  O
  O4       1.0000 0.15059  0.59460  0.26281  Biso   1.000  O
  O5       1.0000 0.57361  0.18810  0.83979  Biso   1.000  O
  O6       1.0000 0.57366  0.18805  0.66936  Biso   1.000  O
  O7       1.0000 0.57361  0.01763  0.83979  Biso   1.000  O
  O8       1.0000 0.40318  0.18805  0.83984  Biso   1.000  O
  O9       1.0000 0.80365  0.41711  0.46044  Biso   1.000  O
  O10      1.0000 0.81819  0.79237  0.06963  Biso   1.000  O
  O11      1.0000 0.19427  0.41649  0.07061  Biso   1.000  O
  O12      1.0000 0.80266  0.41809  0.58967  Biso   1.000  O
  O13      1.0000 0.19447  0.41611  0.59066  Biso   1.000  O
  O14      1.0000 0.81858  0.79218  0.58948  Biso   1.000  O
  O15      1.0000 0.19426  0.93793  0.06983  Biso   1.000  O
  O16      1.0000 0.80344  0.93892  0.06786  Biso   1.000  O
  O17      1.0000 0.80442  0.93776  0.46045  Biso   1.000  O
  O18      1.0000 0.34000  0.79216  0.06885  Biso   1.000  O
  O19      1.0000 0.32448  0.41788  0.46065  Biso   1.000  O
  O20      1.0000 0.32331  0.41885  0.06825  Biso   1.000  O
  O21      1.0000 0.75013  0.36555  0.64221  Biso   1.000  O
  O22      1.0000 0.75211  0.99026  0.01652  Biso   1.000  O
  O23      1.0000 0.37602  0.36614  0.01553  Biso   1.000  O
  O24      1.0000 0.75111  0.36457  0.51298  Biso   1.000  O
  O25      1.0000 0.37582  0.36654  0.51198  Biso   1.000  O
  O26      1.0000 0.75171  0.99047  0.51316  Biso   1.000  O
  O27      1.0000 0.37603  0.86124  0.01631  Biso   1.000  O
  O28      1.0000 0.75034  0.86025  0.01829  Biso   1.000  O
  O29      1.0000 0.74935  0.86144  0.64220  Biso   1.000  O
  O30      1.0000 0.24680  0.99047  0.01729  Biso   1.000  O
  O31      1.0000 0.24580  0.36477  0.64200  Biso   1.000  O
  O32      1.0000 0.24699  0.36378  0.01789  Biso   1.000  O
  O33      1.0000 0.82980  0.44424  0.49841  Biso   1.000  O
  O34      1.0000 0.88751  0.50195  0.44070  Biso   1.000  O
  O35      1.0000 0.24875  0.83013  0.09598  Biso   1.000  O
  O36      1.0000 0.15800  0.77245  0.17020  Biso   1.000  O
  O37      1.0000 0.72398  0.33842  0.60424  Biso   1.000  O
  O38      1.0000 0.66626  0.28071  0.66195  Biso   1.000  O
  O39      1.0000 0.33806  0.95250  0.99016  Biso   1.000  O
  O40      1.0000 0.39577  0.01021  0.93245  Biso   1.000  O
  O41      1.0000 0.23243  0.44403  0.09579  Biso   1.000  O
  O42      1.0000 0.15848  0.50148  0.16973  Biso   1.000  O
  O43      1.0000 0.82960  0.84689  0.49861  Biso   1.000  O
  O44      1.0000 0.88704  0.77291  0.44117  Biso   1.000  O
  O45      1.0000 0.33786  0.33860  0.99036  Biso   1.000  O
  O46      1.0000 0.39530  0.28117  0.93292  Biso   1.000  O
  O47      1.0000 0.72417  0.95231  0.60404  Biso   1.000  O
  O48      1.0000 0.66674  0.00974  0.66148  Biso   1.000  O
  O49      1.0000 0.82941  0.84707  0.09559  Biso   1.000  O
  O50      1.0000 0.88684  0.77311  0.16953  Biso   1.000  O
  O51      1.0000 0.23262  0.44384  0.49881  Biso   1.000  O
  O52      1.0000 0.15868  0.50128  0.44137  Biso   1.000  O
  O53      1.0000 0.72437  0.95210  0.99055  Biso   1.000  O
  O54      1.0000 0.66694  0.00954  0.93312  Biso   1.000  O
  O55      1.0000 0.33766  0.33881  0.60384  Biso   1.000  O
  O56      1.0000 0.39510  0.28137  0.66128  Biso   1.000  O
  O57      1.0000 0.90816  0.52418  0.35785  Biso   1.000  O
  O58      1.0000 0.07598  0.52227  0.19243  Biso   1.000  O
  O59      1.0000 0.90857  0.68919  0.19207  Biso   1.000  O
  O60      1.0000 0.90974  0.52260  0.48067  Biso   1.000  O
  O61      1.0000 0.90783  0.69042  0.48018  Biso   1.000  O
  O62      1.0000 0.07474  0.52301  0.48102  Biso   1.000  O
  O63      1.0000 0.07516  0.81241  0.19085  Biso   1.000  O
  O64      1.0000 0.90973  0.81192  0.35868  Biso   1.000  O
  O65      1.0000 0.90938  0.81277  0.19127  Biso   1.000  O
  O66      1.0000 0.19797  0.68960  0.19243  Biso   1.000  O
  O67      1.0000 0.19748  0.52418  0.19052  Biso   1.000  O
  O68      1.0000 0.19833  0.52382  0.35744  Biso   1.000  O
  O69      1.0000 0.64561  0.25848  0.74480  Biso   1.000  O
  O70      1.0000 0.47779  0.26038  0.91022  Biso   1.000  O
  O71      1.0000 0.64520  0.09347  0.91058  Biso   1.000  O
  O72      1.0000 0.64404  0.26005  0.62198  Biso   1.000  O
  O73      1.0000 0.64595  0.09224  0.62247  Biso   1.000  O
  O74      1.0000 0.47903  0.25964  0.62162  Biso   1.000  O
  O75      1.0000 0.47862  0.97024  0.91180  Biso   1.000  O
  O76      1.0000 0.64404  0.97074  0.74397  Biso   1.000  O
  O77      1.0000 0.64439  0.96989  0.91138  Biso   1.000  O
  O78      1.0000 0.35580  0.09306  0.91022  Biso   1.000  O
  O79      1.0000 0.35629  0.25847  0.91213  Biso   1.000  O
  O80      1.0000 0.35544  0.25883  0.74521  Biso   1.000  O
  O81      1.0000 0.02276  0.63720  0.30545  Biso   1.000  O
  O82      1.0000 0.53102  0.14546  0.79720  Biso   1.000  O
  O83      1.0000 0.83930  0.71704  0.09220  Biso   1.000  O
  O84      1.0000 0.82602  0.97057  0.08897  Biso   1.000  O
  O85      1.0000 0.73099  0.06560  0.99395  Biso   1.000  O
  O86      1.0000 0.74428  0.81206  0.99717  Biso   1.000  O
  O87      1.0000 0.82724  0.96941  0.38512  Biso   1.000  O
  O88      1.0000 0.73085  0.06579  0.48152  Biso   1.000  O
  O89      1.0000 0.11895  0.43735  0.09343  Biso   1.000  O
  O90      1.0000 0.21534  0.34096  0.99703  Biso   1.000  O
  O91      1.0000 0.82409  0.44033  0.62133  Biso   1.000  O
  O92      1.0000 0.11913  0.43722  0.62231  Biso   1.000  O
  O93      1.0000 0.21514  0.06580  0.99586  Biso   1.000  O
  O94      1.0000 0.21416  0.34220  0.71734  Biso   1.000  O
  O95      1.0000 0.83944  0.71686  0.62113  Biso   1.000  O
  O96      1.0000 0.74305  0.81325  0.71753  Biso   1.000  O
  O97      1.0000 0.35495  0.44167  0.08911  Biso   1.000  O
  O98      1.0000 0.45135  0.34528  0.99272  Biso   1.000  O
  O99      1.0000 0.46788  0.81304  0.99406  Biso   1.000  O
  O100     1.0000 0.35613  0.44045  0.38531  Biso   1.000  O
  O101     1.0000 0.45115  0.34543  0.48034  Biso   1.000  O
  O102     1.0000 0.37166  0.71683  0.09028  Biso   1.000  O
  O103     1.0000 0.72968  0.34232  0.48132  Biso   1.000  O
  O104     1.0000 0.82589  0.43854  0.38510  Biso   1.000  O
  O105     1.0000 0.72788  0.34412  0.71754  Biso   1.000  O
  O106     1.0000 0.11893  0.96959  0.09208  Biso   1.000  O
