data_image0
_cell_length_a       18.2704
_cell_length_b       18.2704
_cell_length_c       18.2704
_cell_angle_alpha    60
_cell_angle_beta     60
_cell_angle_gamma    60

loop_
  _atom_site_label
  _atom_site_occupancy
  _atom_site_fract_x
  _atom_site_fract_y
  _atom_site_fract_z
  _atom_site_thermal_displace_type
  _atom_site_B_iso_or_equiv
  _atom_site_type_symbol
  Zn1      1.0000 0.29350  0.29349  0.11952  Biso   1.000  Zn
  Zn2      1.0000 0.29350  0.29349  0.29349  Biso   1.000  Zn
  Zn3      1.0000 0.11953  0.29349  0.29349  Biso   1.000  Zn
  Zn4      1.0000 0.29350  0.11952  0.29349  Biso   1.000  Zn
  Zn5      1.0000 0.70650  0.70651  0.88048  Biso   1.000  Zn
  Zn6      1.0000 0.70650  0.70651  0.70651  Biso   1.000  Zn
  Zn7      1.0000 0.70650  0.88048  0.70651  Biso   1.000  Zn
  Zn8      1.0000 0.88047  0.70651  0.70651  Biso   1.000  Zn
  H1       1.0000 0.45540  0.45540  0.93560  Biso   1.000  H
  H2       1.0000 0.45540  0.45540  0.15360  Biso   1.000  H
  H3       1.0000 0.93560  0.15360  0.45540  Biso   1.000  H
  H4       1.0000 0.15360  0.93560  0.45540  Biso   1.000  H
  H5       1.0000 0.45540  0.93560  0.15360  Biso   1.000  H
  H6       1.0000 0.45540  0.15360  0.93560  Biso   1.000  H
  H7       1.0000 0.93560  0.45540  0.45540  Biso   1.000  H
  H8       1.0000 0.15360  0.45540  0.45540  Biso   1.000  H
  H9       1.0000 0.45540  0.15360  0.45540  Biso   1.000  H
  H10      1.0000 0.45540  0.93560  0.45540  Biso   1.000  H
  H11      1.0000 0.93560  0.45540  0.15360  Biso   1.000  H
  H12      1.0000 0.15360  0.45540  0.93560  Biso   1.000  H
  H13      1.0000 0.54460  0.54460  0.06440  Biso   1.000  H
  H14      1.0000 0.54460  0.54460  0.84640  Biso   1.000  H
  H15      1.0000 0.84640  0.06440  0.54460  Biso   1.000  H
  H16      1.0000 0.06440  0.84640  0.54460  Biso   1.000  H
  H17      1.0000 0.06440  0.54460  0.84640  Biso   1.000  H
  H18      1.0000 0.84640  0.54460  0.06440  Biso   1.000  H
  H19      1.0000 0.54460  0.06440  0.54460  Biso   1.000  H
  H20      1.0000 0.54460  0.84640  0.54460  Biso   1.000  H
  H21      1.0000 0.84640  0.54460  0.54460  Biso   1.000  H
  H22      1.0000 0.06440  0.54460  0.54460  Biso   1.000  H
  H23      1.0000 0.54460  0.06440  0.84640  Biso   1.000  H
  H24      1.0000 0.54460  0.84640  0.06440  Biso   1.000  H
  C1       1.0000 0.47338  0.47338  0.96238  Biso   1.000  C
  C2       1.0000 0.47338  0.47338  0.09086  Biso   1.000  C
  C3       1.0000 0.96238  0.09086  0.47338  Biso   1.000  C
  C4       1.0000 0.09086  0.96238  0.47338  Biso   1.000  C
  C5       1.0000 0.47338  0.96238  0.09086  Biso   1.000  C
  C6       1.0000 0.47338  0.09086  0.96238  Biso   1.000  C
  C7       1.0000 0.96238  0.47338  0.47338  Biso   1.000  C
  C8       1.0000 0.09086  0.47338  0.47338  Biso   1.000  C
  C9       1.0000 0.47338  0.09086  0.47338  Biso   1.000  C
  C10      1.0000 0.47338  0.96238  0.47338  Biso   1.000  C
  C11      1.0000 0.96238  0.47338  0.09086  Biso   1.000  C
  C12      1.0000 0.09086  0.47338  0.96238  Biso   1.000  C
  C13      1.0000 0.52662  0.52662  0.03762  Biso   1.000  C
  C14      1.0000 0.52662  0.52662  0.90914  Biso   1.000  C
  C15      1.0000 0.90914  0.03762  0.52662  Biso   1.000  C
  C16      1.0000 0.03762  0.90914  0.52662  Biso   1.000  C
  C17      1.0000 0.03762  0.52662  0.90914  Biso   1.000  C
  C18      1.0000 0.90914  0.52662  0.03762  Biso   1.000  C
  C19      1.0000 0.52662  0.03762  0.52662  Biso   1.000  C
  C20      1.0000 0.52662  0.90914  0.52662  Biso   1.000  C
  C21      1.0000 0.90914  0.52662  0.52662  Biso   1.000  C
  C22      1.0000 0.03762  0.52662  0.52662  Biso   1.000  C
  C23      1.0000 0.52662  0.03762  0.90914  Biso   1.000  C
  C24      1.0000 0.52662  0.90914  0.03762  Biso   1.000  C
  C25      1.0000 0.38861  0.38861  0.11139  Biso   1.000  C
  C26      1.0000 0.44619  0.44619  0.05381  Biso   1.000  C
  C27      1.0000 0.11139  0.11139  0.38861  Biso   1.000  C
  C28      1.0000 0.05381  0.05381  0.44619  Biso   1.000  C
  C29      1.0000 0.38861  0.11139  0.11139  Biso   1.000  C
  C30      1.0000 0.44619  0.05381  0.05381  Biso   1.000  C
  C31      1.0000 0.11139  0.38861  0.38861  Biso   1.000  C
  C32      1.0000 0.05381  0.44619  0.44619  Biso   1.000  C
  C33      1.0000 0.38861  0.11139  0.38861  Biso   1.000  C
  C34      1.0000 0.44619  0.05381  0.44619  Biso   1.000  C
  C35      1.0000 0.11139  0.38861  0.11139  Biso   1.000  C
  C36      1.0000 0.05381  0.44619  0.05381  Biso   1.000  C
  C37      1.0000 0.61139  0.61139  0.88861  Biso   1.000  C
  C38      1.0000 0.55381  0.55381  0.94619  Biso   1.000  C
  C39      1.0000 0.88861  0.88861  0.61139  Biso   1.000  C
  C40      1.0000 0.94619  0.94619  0.55381  Biso   1.000  C
  C41      1.0000 0.88861  0.61139  0.88861  Biso   1.000  C
  C42      1.0000 0.94619  0.55381  0.94619  Biso   1.000  C
  C43      1.0000 0.61139  0.88861  0.61139  Biso   1.000  C
  C44      1.0000 0.55381  0.94619  0.55381  Biso   1.000  C
  C45      1.0000 0.88861  0.61139  0.61139  Biso   1.000  C
  C46      1.0000 0.94619  0.55381  0.55381  Biso   1.000  C
  C47      1.0000 0.61139  0.88861  0.88861  Biso   1.000  C
  C48      1.0000 0.55381  0.94619  0.94619  Biso   1.000  C
  O1       1.0000 0.25000  0.25000  0.25000  Biso   1.000  O
  O2       1.0000 0.75000  0.75000  0.75000  Biso   1.000  O
  O3       1.0000 0.36607  0.36607  0.07299  Biso   1.000  O
  O4       1.0000 0.36607  0.36607  0.19487  Biso   1.000  O
  O5       1.0000 0.07299  0.19487  0.36607  Biso   1.000  O
  O6       1.0000 0.19487  0.07299  0.36607  Biso   1.000  O
  O7       1.0000 0.36607  0.07299  0.19487  Biso   1.000  O
  O8       1.0000 0.36607  0.19487  0.07299  Biso   1.000  O
  O9       1.0000 0.07299  0.36607  0.36607  Biso   1.000  O
  O10      1.0000 0.19487  0.36607  0.36607  Biso   1.000  O
  O11      1.0000 0.36607  0.19487  0.36607  Biso   1.000  O
  O12      1.0000 0.36607  0.07299  0.36607  Biso   1.000  O
  O13      1.0000 0.07299  0.36607  0.19487  Biso   1.000  O
  O14      1.0000 0.19487  0.36607  0.07299  Biso   1.000  O
  O15      1.0000 0.63393  0.63393  0.92701  Biso   1.000  O
  O16      1.0000 0.63393  0.63393  0.80513  Biso   1.000  O
  O17      1.0000 0.80513  0.92701  0.63393  Biso   1.000  O
  O18      1.0000 0.92701  0.80513  0.63393  Biso   1.000  O
  O19      1.0000 0.92701  0.63393  0.80513  Biso   1.000  O
  O20      1.0000 0.80513  0.63393  0.92701  Biso   1.000  O
  O21      1.0000 0.63393  0.92701  0.63393  Biso   1.000  O
  O22      1.0000 0.63393  0.80513  0.63393  Biso   1.000  O
  O23      1.0000 0.80513  0.63393  0.63393  Biso   1.000  O
  O24      1.0000 0.92701  0.63393  0.63393  Biso   1.000  O
  O25      1.0000 0.63393  0.92701  0.80513  Biso   1.000  O
  O26      1.0000 0.63393  0.80513  0.92701  Biso   1.000  O
  Zn9      1.0000 0.98695  0.59317  0.26033  Biso   1.000  Zn
  Zn10     1.0000 0.98690  0.59321  0.43134  Biso   1.000  Zn
  Zn11     1.0000 0.98695  0.76422  0.26033  Biso   1.000  Zn
  Zn12     1.0000 0.15796  0.59321  0.26028  Biso   1.000  Zn
  Zn13     1.0000 0.57901  0.18531  0.83924  Biso   1.000  Zn
  Zn14     1.0000 0.57906  0.18527  0.66823  Biso   1.000  Zn
  Zn15     1.0000 0.57901  0.01426  0.83924  Biso   1.000  Zn
  Zn16     1.0000 0.40799  0.18527  0.83929  Biso   1.000  Zn
  C49      1.0000 0.80983  0.41511  0.45859  Biso   1.000  C
  C50      1.0000 0.82099  0.79166  0.06987  Biso   1.000  C
  C51      1.0000 0.19837  0.41449  0.07085  Biso   1.000  C
  C52      1.0000 0.80885  0.41609  0.58826  Biso   1.000  C
  C53      1.0000 0.19856  0.41411  0.58926  Biso   1.000  C
  C54      1.0000 0.82138  0.79147  0.58808  Biso   1.000  C
  C55      1.0000 0.19836  0.93429  0.07007  Biso   1.000  C
  C56      1.0000 0.80963  0.93529  0.06809  Biso   1.000  C
  C57      1.0000 0.81061  0.93412  0.45860  Biso   1.000  C
  C58      1.0000 0.34117  0.79145  0.06909  Biso   1.000  C
  C59      1.0000 0.32902  0.41589  0.45880  Biso   1.000  C
  C60      1.0000 0.32784  0.41686  0.06848  Biso   1.000  C
  C61      1.0000 0.75613  0.36337  0.64098  Biso   1.000  C
  C62      1.0000 0.75811  0.98680  0.01657  Biso   1.000  C
  C63      1.0000 0.38074  0.36397  0.01559  Biso   1.000  C
  C64      1.0000 0.75711  0.36239  0.51131  Biso   1.000  C
  C65      1.0000 0.38054  0.36437  0.51031  Biso   1.000  C
  C66      1.0000 0.75772  0.98701  0.51150  Biso   1.000  C
  C67      1.0000 0.38075  0.85734  0.01637  Biso   1.000  C
  C68      1.0000 0.75634  0.85634  0.01835  Biso   1.000  C
  C69      1.0000 0.75535  0.85753  0.64097  Biso   1.000  C
  C70      1.0000 0.25108  0.98701  0.01735  Biso   1.000  C
  C71      1.0000 0.25008  0.36259  0.64078  Biso   1.000  C
  C72      1.0000 0.25126  0.36160  0.01796  Biso   1.000  C
  C73      1.0000 0.83607  0.44233  0.49669  Biso   1.000  C
  C74      1.0000 0.89398  0.50024  0.43878  Biso   1.000  C
  C75      1.0000 0.24960  0.82955  0.09631  Biso   1.000  C
  C76      1.0000 0.16540  0.77166  0.16735  Biso   1.000  C
  C77      1.0000 0.72989  0.33615  0.60288  Biso   1.000  C
  C78      1.0000 0.67198  0.27824  0.66079  Biso   1.000  C
  C79      1.0000 0.34265  0.94891  0.99013  Biso   1.000  C
  C80      1.0000 0.40055  0.00681  0.93222  Biso   1.000  C
  C81      1.0000 0.23666  0.44212  0.09612  Biso   1.000  C
  C82      1.0000 0.16588  0.49977  0.16688  Biso   1.000  C
  C83      1.0000 0.83587  0.84293  0.49689  Biso   1.000  C
  C84      1.0000 0.89351  0.77213  0.43926  Biso   1.000  C
  C85      1.0000 0.34245  0.33634  0.99032  Biso   1.000  C
  C86      1.0000 0.40008  0.27871  0.93269  Biso   1.000  C
  C87      1.0000 0.73008  0.94872  0.60268  Biso   1.000  C
  C88      1.0000 0.67245  0.00635  0.66031  Biso   1.000  C
  C89      1.0000 0.83568  0.84312  0.09592  Biso   1.000  C
  C90      1.0000 0.89331  0.77234  0.16668  Biso   1.000  C
  C91      1.0000 0.23685  0.44194  0.49709  Biso   1.000  C
  C92      1.0000 0.16608  0.49957  0.43945  Biso   1.000  C
  C93      1.0000 0.73028  0.94851  0.99052  Biso   1.000  C
  C94      1.0000 0.67265  0.00614  0.93289  Biso   1.000  C
  C95      1.0000 0.34225  0.33654  0.60248  Biso   1.000  C
  C96      1.0000 0.39988  0.27891  0.66012  Biso   1.000  C
  O27      1.0000 0.91470  0.52255  0.35565  Biso   1.000  O
  O28      1.0000 0.08310  0.52063  0.18966  Biso   1.000  O
  O29      1.0000 0.91512  0.68812  0.18930  Biso   1.000  O
  O30      1.0000 0.91628  0.52096  0.47889  Biso   1.000  O
  O31      1.0000 0.91437  0.68936  0.47840  Biso   1.000  O
  O32      1.0000 0.08186  0.52138  0.47924  Biso   1.000  O
  O33      1.0000 0.08227  0.81177  0.18808  Biso   1.000  O
  O34      1.0000 0.91628  0.81127  0.35648  Biso   1.000  O
  O35      1.0000 0.91593  0.81212  0.18849  Biso   1.000  O
  O36      1.0000 0.20551  0.68853  0.18966  Biso   1.000  O
  O37      1.0000 0.20502  0.52255  0.18774  Biso   1.000  O
  O38      1.0000 0.20587  0.52219  0.35523  Biso   1.000  O
  O39      1.0000 0.65126  0.25593  0.74392  Biso   1.000  O
  O40      1.0000 0.48286  0.25785  0.90991  Biso   1.000  O
  O41      1.0000 0.65084  0.09036  0.91027  Biso   1.000  O
  O42      1.0000 0.64968  0.25752  0.62068  Biso   1.000  O
  O43      1.0000 0.65159  0.08912  0.62118  Biso   1.000  O
  O44      1.0000 0.48410  0.25710  0.62033  Biso   1.000  O
  O45      1.0000 0.48369  0.96671  0.91149  Biso   1.000  O
  O46      1.0000 0.64968  0.96721  0.74309  Biso   1.000  O
  O47      1.0000 0.65003  0.96636  0.91108  Biso   1.000  O
  O48      1.0000 0.36045  0.08995  0.90991  Biso   1.000  O
  O49      1.0000 0.36094  0.25593  0.91183  Biso   1.000  O
  O50      1.0000 0.36009  0.25629  0.74434  Biso   1.000  O
  O51      1.0000 0.02969  0.63595  0.30307  Biso   1.000  O
  O52      1.0000 0.53627  0.14253  0.79650  Biso   1.000  O
  H25      1.0000 0.84218  0.71607  0.09251  Biso   1.000  H
  H26      1.0000 0.83228  0.96704  0.08928  Biso   1.000  H
  H27      1.0000 0.73693  0.06239  0.99393  Biso   1.000  H
  H28      1.0000 0.74683  0.81142  0.99716  Biso   1.000  H
  H29      1.0000 0.83351  0.96587  0.38301  Biso   1.000  H
  H30      1.0000 0.73678  0.06259  0.47974  Biso   1.000  H
  H31      1.0000 0.12278  0.43542  0.09375  Biso   1.000  H
  H32      1.0000 0.21951  0.33870  0.99702  Biso   1.000  H
  H33      1.0000 0.83035  0.43841  0.62003  Biso   1.000  H
  H34      1.0000 0.12297  0.43529  0.62102  Biso   1.000  H
  H35      1.0000 0.21931  0.06260  0.99585  Biso   1.000  H
  H36      1.0000 0.21832  0.33994  0.71637  Biso   1.000  H
  H37      1.0000 0.84231  0.71589  0.61983  Biso   1.000  H
  H38      1.0000 0.74559  0.81261  0.71656  Biso   1.000  H
  H39      1.0000 0.35960  0.43975  0.08941  Biso   1.000  H
  H40      1.0000 0.45632  0.34304  0.99269  Biso   1.000  H
  H41      1.0000 0.46948  0.81240  0.99404  Biso   1.000  H
  H42      1.0000 0.36078  0.43854  0.38320  Biso   1.000  H
  H43      1.0000 0.45613  0.34319  0.47855  Biso   1.000  H
  H44      1.0000 0.37294  0.71586  0.09059  Biso   1.000  H
  H45      1.0000 0.73561  0.34007  0.47954  Biso   1.000  H
  H46      1.0000 0.83215  0.43661  0.38300  Biso   1.000  H
  H47      1.0000 0.73381  0.34187  0.71658  Biso   1.000  H
  H48      1.0000 0.12276  0.96605  0.09240  Biso   1.000  H
