data_image0
_cell_length_a       18.255
_cell_length_b       18.255
_cell_length_c       18.255
_cell_angle_alpha    60
_cell_angle_beta     60
_cell_angle_gamma    60

loop_
  _atom_site_label
  _atom_site_occupancy
  _atom_site_fract_x
  _atom_site_fract_y
  _atom_site_fract_z
  _atom_site_thermal_displace_type
  _atom_site_B_iso_or_equiv
  _atom_site_type_symbol
  Zn1      1.0000 0.29354  0.29354  0.11938  Biso   1.000  Zn
  Zn2      1.0000 0.29354  0.29354  0.29354  Biso   1.000  Zn
  Zn3      1.0000 0.11938  0.29354  0.29354  Biso   1.000  Zn
  Zn4      1.0000 0.29354  0.11938  0.29354  Biso   1.000  Zn
  Zn5      1.0000 0.70646  0.70646  0.88062  Biso   1.000  Zn
  Zn6      1.0000 0.70646  0.70646  0.70646  Biso   1.000  Zn
  Zn7      1.0000 0.70646  0.88062  0.70646  Biso   1.000  Zn
  Zn8      1.0000 0.88062  0.70646  0.70646  Biso   1.000  Zn
  H1       1.0000 0.45570  0.45570  0.93630  Biso   1.000  H
  H2       1.0000 0.45570  0.45570  0.15230  Biso   1.000  H
  H3       1.0000 0.93630  0.15230  0.45570  Biso   1.000  H
  H4       1.0000 0.15230  0.93630  0.45570  Biso   1.000  H
  H5       1.0000 0.45570  0.93630  0.15230  Biso   1.000  H
  H6       1.0000 0.45570  0.15230  0.93630  Biso   1.000  H
  H7       1.0000 0.93630  0.45570  0.45570  Biso   1.000  H
  H8       1.0000 0.15230  0.45570  0.45570  Biso   1.000  H
  H9       1.0000 0.45570  0.15230  0.45570  Biso   1.000  H
  H10      1.0000 0.45570  0.93630  0.45570  Biso   1.000  H
  H11      1.0000 0.93630  0.45570  0.15230  Biso   1.000  H
  H12      1.0000 0.15230  0.45570  0.93630  Biso   1.000  H
  H13      1.0000 0.54430  0.54430  0.06370  Biso   1.000  H
  H14      1.0000 0.54430  0.54430  0.84770  Biso   1.000  H
  H15      1.0000 0.84770  0.06370  0.54430  Biso   1.000  H
  H16      1.0000 0.06370  0.84770  0.54430  Biso   1.000  H
  H17      1.0000 0.06370  0.54430  0.84770  Biso   1.000  H
  H18      1.0000 0.84770  0.54430  0.06370  Biso   1.000  H
  H19      1.0000 0.54430  0.06370  0.54430  Biso   1.000  H
  H20      1.0000 0.54430  0.84770  0.54430  Biso   1.000  H
  H21      1.0000 0.84770  0.54430  0.54430  Biso   1.000  H
  H22      1.0000 0.06370  0.54430  0.54430  Biso   1.000  H
  H23      1.0000 0.54430  0.06370  0.84770  Biso   1.000  H
  H24      1.0000 0.54430  0.84770  0.06370  Biso   1.000  H
  C1       1.0000 0.47332  0.47332  0.96310  Biso   1.000  C
  C2       1.0000 0.47332  0.47332  0.09026  Biso   1.000  C
  C3       1.0000 0.96310  0.09026  0.47332  Biso   1.000  C
  C4       1.0000 0.09026  0.96310  0.47332  Biso   1.000  C
  C5       1.0000 0.47332  0.96310  0.09026  Biso   1.000  C
  C6       1.0000 0.47332  0.09026  0.96310  Biso   1.000  C
  C7       1.0000 0.96310  0.47332  0.47332  Biso   1.000  C
  C8       1.0000 0.09026  0.47332  0.47332  Biso   1.000  C
  C9       1.0000 0.47332  0.09026  0.47332  Biso   1.000  C
  C10      1.0000 0.47332  0.96310  0.47332  Biso   1.000  C
  C11      1.0000 0.96310  0.47332  0.09026  Biso   1.000  C
  C12      1.0000 0.09026  0.47332  0.96310  Biso   1.000  C
  C13      1.0000 0.52668  0.52668  0.03690  Biso   1.000  C
  C14      1.0000 0.52668  0.52668  0.90974  Biso   1.000  C
  C15      1.0000 0.90974  0.03690  0.52668  Biso   1.000  C
  C16      1.0000 0.03690  0.90974  0.52668  Biso   1.000  C
  C17      1.0000 0.03690  0.52668  0.90974  Biso   1.000  C
  C18      1.0000 0.90974  0.52668  0.03690  Biso   1.000  C
  C19      1.0000 0.52668  0.03690  0.52668  Biso   1.000  C
  C20      1.0000 0.52668  0.90974  0.52668  Biso   1.000  C
  C21      1.0000 0.90974  0.52668  0.52668  Biso   1.000  C
  C22      1.0000 0.03690  0.52668  0.52668  Biso   1.000  C
  C23      1.0000 0.52668  0.03690  0.90974  Biso   1.000  C
  C24      1.0000 0.52668  0.90974  0.03690  Biso   1.000  C
  C25      1.0000 0.38870  0.38870  0.11130  Biso   1.000  C
  C26      1.0000 0.44580  0.44580  0.05420  Biso   1.000  C
  C27      1.0000 0.11130  0.11130  0.38870  Biso   1.000  C
  C28      1.0000 0.05420  0.05420  0.44580  Biso   1.000  C
  C29      1.0000 0.38870  0.11130  0.11130  Biso   1.000  C
  C30      1.0000 0.44580  0.05420  0.05420  Biso   1.000  C
  C31      1.0000 0.11130  0.38870  0.38870  Biso   1.000  C
  C32      1.0000 0.05420  0.44580  0.44580  Biso   1.000  C
  C33      1.0000 0.38870  0.11130  0.38870  Biso   1.000  C
  C34      1.0000 0.44580  0.05420  0.44580  Biso   1.000  C
  C35      1.0000 0.11130  0.38870  0.11130  Biso   1.000  C
  C36      1.0000 0.05420  0.44580  0.05420  Biso   1.000  C
  C37      1.0000 0.61130  0.61130  0.88870  Biso   1.000  C
  C38      1.0000 0.55420  0.55420  0.94580  Biso   1.000  C
  C39      1.0000 0.88870  0.88870  0.61130  Biso   1.000  C
  C40      1.0000 0.94580  0.94580  0.55420  Biso   1.000  C
  C41      1.0000 0.88870  0.61130  0.88870  Biso   1.000  C
  C42      1.0000 0.94580  0.55420  0.94580  Biso   1.000  C
  C43      1.0000 0.61130  0.88870  0.61130  Biso   1.000  C
  C44      1.0000 0.55420  0.94580  0.55420  Biso   1.000  C
  C45      1.0000 0.88870  0.61130  0.61130  Biso   1.000  C
  C46      1.0000 0.94580  0.55420  0.55420  Biso   1.000  C
  C47      1.0000 0.61130  0.88870  0.88870  Biso   1.000  C
  C48      1.0000 0.55420  0.94580  0.94580  Biso   1.000  C
  O1       1.0000 0.25000  0.25000  0.25000  Biso   1.000  O
  O2       1.0000 0.75000  0.75000  0.75000  Biso   1.000  O
  O3       1.0000 0.36613  0.36613  0.07303  Biso   1.000  O
  O4       1.0000 0.36613  0.36613  0.19471  Biso   1.000  O
  O5       1.0000 0.07303  0.19471  0.36613  Biso   1.000  O
  O6       1.0000 0.19471  0.07303  0.36613  Biso   1.000  O
  O7       1.0000 0.36613  0.07303  0.19471  Biso   1.000  O
  O8       1.0000 0.36613  0.19471  0.07303  Biso   1.000  O
  O9       1.0000 0.07303  0.36613  0.36613  Biso   1.000  O
  O10      1.0000 0.19471  0.36613  0.36613  Biso   1.000  O
  O11      1.0000 0.36613  0.19471  0.36613  Biso   1.000  O
  O12      1.0000 0.36613  0.07303  0.36613  Biso   1.000  O
  O13      1.0000 0.07303  0.36613  0.19471  Biso   1.000  O
  O14      1.0000 0.19471  0.36613  0.07303  Biso   1.000  O
  O15      1.0000 0.63387  0.63387  0.92697  Biso   1.000  O
  O16      1.0000 0.63387  0.63387  0.80529  Biso   1.000  O
  O17      1.0000 0.80529  0.92697  0.63387  Biso   1.000  O
  O18      1.0000 0.92697  0.80529  0.63387  Biso   1.000  O
  O19      1.0000 0.92697  0.63387  0.80529  Biso   1.000  O
  O20      1.0000 0.80529  0.63387  0.92697  Biso   1.000  O
  O21      1.0000 0.63387  0.92697  0.63387  Biso   1.000  O
  O22      1.0000 0.63387  0.80529  0.63387  Biso   1.000  O
  O23      1.0000 0.80529  0.63387  0.63387  Biso   1.000  O
  O24      1.0000 0.92697  0.63387  0.63387  Biso   1.000  O
  O25      1.0000 0.63387  0.92697  0.80529  Biso   1.000  O
  O26      1.0000 0.63387  0.80529  0.92697  Biso   1.000  O
  Zn9      1.0000 0.99031  0.59248  0.25908  Biso   1.000  Zn
  Zn10     1.0000 0.99026  0.59252  0.43038  Biso   1.000  Zn
  Zn11     1.0000 0.99031  0.76382  0.25908  Biso   1.000  Zn
  Zn12     1.0000 0.16161  0.59253  0.25903  Biso   1.000  Zn
  Zn13     1.0000 0.58167  0.18394  0.83897  Biso   1.000  Zn
  Zn14     1.0000 0.58172  0.18389  0.66767  Biso   1.000  Zn
  Zn15     1.0000 0.58167  0.01259  0.83897  Biso   1.000  Zn
  Zn16     1.0000 0.41037  0.18389  0.83902  Biso   1.000  Zn
  C49      1.0000 0.81289  0.41412  0.45768  Biso   1.000  C
  C50      1.0000 0.82238  0.79131  0.06998  Biso   1.000  C
  C51      1.0000 0.20039  0.41350  0.07097  Biso   1.000  C
  C52      1.0000 0.81190  0.41511  0.58757  Biso   1.000  C
  C53      1.0000 0.20058  0.41312  0.58857  Biso   1.000  C
  C54      1.0000 0.82277  0.79112  0.58738  Biso   1.000  C
  C55      1.0000 0.20038  0.93249  0.07019  Biso   1.000  C
  C56      1.0000 0.81268  0.93349  0.06820  Biso   1.000  C
  C57      1.0000 0.81367  0.93232  0.45769  Biso   1.000  C
  C58      1.0000 0.34175  0.79110  0.06920  Biso   1.000  C
  C59      1.0000 0.33127  0.41490  0.45788  Biso   1.000  C
  C60      1.0000 0.33008  0.41588  0.06860  Biso   1.000  C
  C61      1.0000 0.75909  0.36230  0.64038  Biso   1.000  C
  C62      1.0000 0.76108  0.98509  0.01660  Biso   1.000  C
  C63      1.0000 0.38307  0.36289  0.01561  Biso   1.000  C
  C64      1.0000 0.76008  0.36131  0.51048  Biso   1.000  C
  C65      1.0000 0.38287  0.36330  0.50948  Biso   1.000  C
  C66      1.0000 0.76068  0.98530  0.51067  Biso   1.000  C
  C67      1.0000 0.38308  0.85541  0.01639  Biso   1.000  C
  C68      1.0000 0.75930  0.85441  0.01838  Biso   1.000  C
  C69      1.0000 0.75831  0.85561  0.64037  Biso   1.000  C
  C70      1.0000 0.25319  0.98530  0.01738  Biso   1.000  C
  C71      1.0000 0.25219  0.36152  0.64017  Biso   1.000  C
  C72      1.0000 0.25337  0.36052  0.01799  Biso   1.000  C
  C73      1.0000 0.83917  0.44139  0.49584  Biso   1.000  C
  C74      1.0000 0.89718  0.49940  0.43784  Biso   1.000  C
  C75      1.0000 0.25002  0.82926  0.09648  Biso   1.000  C
  C76      1.0000 0.16906  0.77128  0.16595  Biso   1.000  C
  C77      1.0000 0.73281  0.33503  0.60221  Biso   1.000  C
  C78      1.0000 0.67480  0.27702  0.66022  Biso   1.000  C
  C79      1.0000 0.34491  0.94713  0.99011  Biso   1.000  C
  C80      1.0000 0.40292  0.00514  0.93210  Biso   1.000  C
  C81      1.0000 0.23875  0.44118  0.09628  Biso   1.000  C
  C82      1.0000 0.16953  0.49893  0.16547  Biso   1.000  C
  C83      1.0000 0.83897  0.84098  0.49604  Biso   1.000  C
  C84      1.0000 0.89670  0.77175  0.43831  Biso   1.000  C
  C85      1.0000 0.34471  0.33522  0.99031  Biso   1.000  C
  C86      1.0000 0.40244  0.27749  0.93258  Biso   1.000  C
  C87      1.0000 0.73300  0.94694  0.60201  Biso   1.000  C
  C88      1.0000 0.67528  0.00467  0.65974  Biso   1.000  C
  C89      1.0000 0.83878  0.84116  0.09608  Biso   1.000  C
  C90      1.0000 0.89650  0.77195  0.16528  Biso   1.000  C
  C91      1.0000 0.23894  0.44100  0.49624  Biso   1.000  C
  C92      1.0000 0.16973  0.49873  0.43851  Biso   1.000  C
  C93      1.0000 0.73321  0.94674  0.99050  Biso   1.000  C
  C94      1.0000 0.67547  0.00447  0.93277  Biso   1.000  C
  C95      1.0000 0.34451  0.33542  0.60181  Biso   1.000  C
  C96      1.0000 0.40224  0.27769  0.65954  Biso   1.000  C
  O27      1.0000 0.91794  0.52174  0.35456  Biso   1.000  O
  O28      1.0000 0.08662  0.51983  0.18829  Biso   1.000  O
  O29      1.0000 0.91835  0.68759  0.18793  Biso   1.000  O
  O30      1.0000 0.91952  0.52015  0.47801  Biso   1.000  O
  O31      1.0000 0.91760  0.68883  0.47752  Biso   1.000  O
  O32      1.0000 0.08537  0.52057  0.47837  Biso   1.000  O
  O33      1.0000 0.08579  0.81145  0.18671  Biso   1.000  O
  O34      1.0000 0.91952  0.81095  0.35539  Biso   1.000  O
  O35      1.0000 0.91916  0.81181  0.18712  Biso   1.000  O
  O36      1.0000 0.20923  0.68801  0.18829  Biso   1.000  O
  O37      1.0000 0.20874  0.52174  0.18637  Biso   1.000  O
  O38      1.0000 0.20959  0.52138  0.35415  Biso   1.000  O
  O39      1.0000 0.65404  0.25468  0.74349  Biso   1.000  O
  O40      1.0000 0.48536  0.25659  0.90976  Biso   1.000  O
  O41      1.0000 0.65363  0.08882  0.91012  Biso   1.000  O
  O42      1.0000 0.65246  0.25626  0.62004  Biso   1.000  O
  O43      1.0000 0.65438  0.08759  0.62054  Biso   1.000  O
  O44      1.0000 0.48660  0.25585  0.61969  Biso   1.000  O
  O45      1.0000 0.48619  0.96497  0.91134  Biso   1.000  O
  O46      1.0000 0.65246  0.96546  0.74266  Biso   1.000  O
  O47      1.0000 0.65282  0.96461  0.91093  Biso   1.000  O
  O48      1.0000 0.36274  0.08841  0.90976  Biso   1.000  O
  O49      1.0000 0.36324  0.25467  0.91168  Biso   1.000  O
  O50      1.0000 0.36239  0.25503  0.74391  Biso   1.000  O
  O51      1.0000 0.03312  0.63534  0.30189  Biso   1.000  O
  O52      1.0000 0.53886  0.14108  0.79616  Biso   1.000  O
  H25      1.0000 0.84360  0.71559  0.09267  Biso   1.000  H
  H26      1.0000 0.83537  0.96530  0.08943  Biso   1.000  H
  H27      1.0000 0.73986  0.06081  0.99392  Biso   1.000  H
  H28      1.0000 0.74809  0.81110  0.99716  Biso   1.000  H
  H29      1.0000 0.83660  0.96413  0.38197  Biso   1.000  H
  H30      1.0000 0.73972  0.06101  0.47886  Biso   1.000  H
  H31      1.0000 0.12468  0.43447  0.09391  Biso   1.000  H
  H32      1.0000 0.22156  0.33759  0.99702  Biso   1.000  H
  H33      1.0000 0.83344  0.43746  0.61939  Biso   1.000  H
  H34      1.0000 0.12486  0.43434  0.62038  Biso   1.000  H
  H35      1.0000 0.22137  0.06102  0.99584  Biso   1.000  H
  H36      1.0000 0.22038  0.33883  0.71589  Biso   1.000  H
  H37      1.0000 0.84374  0.71541  0.61919  Biso   1.000  H
  H38      1.0000 0.74685  0.81229  0.71608  Biso   1.000  H
  H39      1.0000 0.36190  0.43881  0.08957  Biso   1.000  H
  H40      1.0000 0.45878  0.34193  0.99268  Biso   1.000  H
  H41      1.0000 0.47027  0.81209  0.99403  Biso   1.000  H
  H42      1.0000 0.36308  0.43759  0.38216  Biso   1.000  H
  H43      1.0000 0.45859  0.34208  0.47767  Biso   1.000  H
  H44      1.0000 0.37357  0.71538  0.09074  Biso   1.000  H
  H45      1.0000 0.73854  0.33895  0.47866  Biso   1.000  H
  H46      1.0000 0.83525  0.43566  0.38195  Biso   1.000  H
  H47      1.0000 0.73673  0.34076  0.71610  Biso   1.000  H
  H48      1.0000 0.12466  0.96431  0.09255  Biso   1.000  H
