data_image0
_cell_length_a       18.2751
_cell_length_b       18.2751
_cell_length_c       18.2751
_cell_angle_alpha    60
_cell_angle_beta     60
_cell_angle_gamma    60

loop_
  _atom_site_label
  _atom_site_occupancy
  _atom_site_fract_x
  _atom_site_fract_y
  _atom_site_fract_z
  _atom_site_thermal_displace_type
  _atom_site_B_iso_or_equiv
  _atom_site_type_symbol
  Zn1      1.0000 0.29350  0.29349  0.11952  Biso   1.000  Zn
  Zn2      1.0000 0.29350  0.29349  0.29349  Biso   1.000  Zn
  Zn3      1.0000 0.11953  0.29349  0.29349  Biso   1.000  Zn
  Zn4      1.0000 0.29350  0.11952  0.29349  Biso   1.000  Zn
  Zn5      1.0000 0.70650  0.70651  0.88048  Biso   1.000  Zn
  Zn6      1.0000 0.70650  0.70651  0.70651  Biso   1.000  Zn
  Zn7      1.0000 0.70650  0.88048  0.70651  Biso   1.000  Zn
  Zn8      1.0000 0.88047  0.70651  0.70651  Biso   1.000  Zn
  H1       1.0000 0.45530  0.45530  0.93570  Biso   1.000  H
  H2       1.0000 0.45530  0.45530  0.15370  Biso   1.000  H
  H3       1.0000 0.93570  0.15370  0.45530  Biso   1.000  H
  H4       1.0000 0.15370  0.93570  0.45530  Biso   1.000  H
  H5       1.0000 0.45530  0.93570  0.15370  Biso   1.000  H
  H6       1.0000 0.45530  0.15370  0.93570  Biso   1.000  H
  H7       1.0000 0.93570  0.45530  0.45530  Biso   1.000  H
  H8       1.0000 0.15370  0.45530  0.45530  Biso   1.000  H
  H9       1.0000 0.45530  0.15370  0.45530  Biso   1.000  H
  H10      1.0000 0.45530  0.93570  0.45530  Biso   1.000  H
  H11      1.0000 0.93570  0.45530  0.15370  Biso   1.000  H
  H12      1.0000 0.15370  0.45530  0.93570  Biso   1.000  H
  H13      1.0000 0.54470  0.54470  0.06430  Biso   1.000  H
  H14      1.0000 0.54470  0.54470  0.84630  Biso   1.000  H
  H15      1.0000 0.84630  0.06430  0.54470  Biso   1.000  H
  H16      1.0000 0.06430  0.84630  0.54470  Biso   1.000  H
  H17      1.0000 0.06430  0.54470  0.84630  Biso   1.000  H
  H18      1.0000 0.84630  0.54470  0.06430  Biso   1.000  H
  H19      1.0000 0.54470  0.06430  0.54470  Biso   1.000  H
  H20      1.0000 0.54470  0.84630  0.54470  Biso   1.000  H
  H21      1.0000 0.84630  0.54470  0.54470  Biso   1.000  H
  H22      1.0000 0.06430  0.54470  0.54470  Biso   1.000  H
  H23      1.0000 0.54470  0.06430  0.84630  Biso   1.000  H
  H24      1.0000 0.54470  0.84630  0.06430  Biso   1.000  H
  C1       1.0000 0.47331  0.47331  0.96231  Biso   1.000  C
  C2       1.0000 0.47331  0.47331  0.09107  Biso   1.000  C
  C3       1.0000 0.96231  0.09107  0.47331  Biso   1.000  C
  C4       1.0000 0.09107  0.96231  0.47331  Biso   1.000  C
  C5       1.0000 0.47331  0.96231  0.09107  Biso   1.000  C
  C6       1.0000 0.47331  0.09107  0.96231  Biso   1.000  C
  C7       1.0000 0.96231  0.47331  0.47331  Biso   1.000  C
  C8       1.0000 0.09107  0.47331  0.47331  Biso   1.000  C
  C9       1.0000 0.47331  0.09107  0.47331  Biso   1.000  C
  C10      1.0000 0.47331  0.96231  0.47331  Biso   1.000  C
  C11      1.0000 0.96231  0.47331  0.09107  Biso   1.000  C
  C12      1.0000 0.09107  0.47331  0.96231  Biso   1.000  C
  C13      1.0000 0.52669  0.52669  0.03769  Biso   1.000  C
  C14      1.0000 0.52669  0.52669  0.90893  Biso   1.000  C
  C15      1.0000 0.90893  0.03769  0.52669  Biso   1.000  C
  C16      1.0000 0.03769  0.90893  0.52669  Biso   1.000  C
  C17      1.0000 0.03769  0.52669  0.90893  Biso   1.000  C
  C18      1.0000 0.90893  0.52669  0.03769  Biso   1.000  C
  C19      1.0000 0.52669  0.03769  0.52669  Biso   1.000  C
  C20      1.0000 0.52669  0.90893  0.52669  Biso   1.000  C
  C21      1.0000 0.90893  0.52669  0.52669  Biso   1.000  C
  C22      1.0000 0.03769  0.52669  0.52669  Biso   1.000  C
  C23      1.0000 0.52669  0.03769  0.90893  Biso   1.000  C
  C24      1.0000 0.52669  0.90893  0.03769  Biso   1.000  C
  C25      1.0000 0.38853  0.38853  0.11147  Biso   1.000  C
  C26      1.0000 0.44625  0.44625  0.05375  Biso   1.000  C
  C27      1.0000 0.11147  0.11147  0.38853  Biso   1.000  C
  C28      1.0000 0.05375  0.05375  0.44625  Biso   1.000  C
  C29      1.0000 0.38853  0.11147  0.11147  Biso   1.000  C
  C30      1.0000 0.44625  0.05375  0.05375  Biso   1.000  C
  C31      1.0000 0.11147  0.38853  0.38853  Biso   1.000  C
  C32      1.0000 0.05375  0.44625  0.44625  Biso   1.000  C
  C33      1.0000 0.38853  0.11147  0.38853  Biso   1.000  C
  C34      1.0000 0.44625  0.05375  0.44625  Biso   1.000  C
  C35      1.0000 0.11147  0.38853  0.11147  Biso   1.000  C
  C36      1.0000 0.05375  0.44625  0.05375  Biso   1.000  C
  C37      1.0000 0.61147  0.61147  0.88853  Biso   1.000  C
  C38      1.0000 0.55375  0.55375  0.94625  Biso   1.000  C
  C39      1.0000 0.88853  0.88853  0.61147  Biso   1.000  C
  C40      1.0000 0.94625  0.94625  0.55375  Biso   1.000  C
  C41      1.0000 0.88853  0.61147  0.88853  Biso   1.000  C
  C42      1.0000 0.94625  0.55375  0.94625  Biso   1.000  C
  C43      1.0000 0.61147  0.88853  0.61147  Biso   1.000  C
  C44      1.0000 0.55375  0.94625  0.55375  Biso   1.000  C
  C45      1.0000 0.88853  0.61147  0.61147  Biso   1.000  C
  C46      1.0000 0.94625  0.55375  0.55375  Biso   1.000  C
  C47      1.0000 0.61147  0.88853  0.88853  Biso   1.000  C
  C48      1.0000 0.55375  0.94625  0.94625  Biso   1.000  C
  O1       1.0000 0.25000  0.25000  0.25000  Biso   1.000  O
  O2       1.0000 0.75000  0.75000  0.75000  Biso   1.000  O
  O3       1.0000 0.36609  0.36609  0.07299  Biso   1.000  O
  O4       1.0000 0.36609  0.36609  0.19483  Biso   1.000  O
  O5       1.0000 0.07299  0.19483  0.36609  Biso   1.000  O
  O6       1.0000 0.19483  0.07299  0.36609  Biso   1.000  O
  O7       1.0000 0.36609  0.07299  0.19483  Biso   1.000  O
  O8       1.0000 0.36609  0.19483  0.07299  Biso   1.000  O
  O9       1.0000 0.07299  0.36609  0.36609  Biso   1.000  O
  O10      1.0000 0.19483  0.36609  0.36609  Biso   1.000  O
  O11      1.0000 0.36609  0.19483  0.36609  Biso   1.000  O
  O12      1.0000 0.36609  0.07299  0.36609  Biso   1.000  O
  O13      1.0000 0.07299  0.36609  0.19483  Biso   1.000  O
  O14      1.0000 0.19483  0.36609  0.07299  Biso   1.000  O
  O15      1.0000 0.63391  0.63391  0.92701  Biso   1.000  O
  O16      1.0000 0.63391  0.63391  0.80517  Biso   1.000  O
  O17      1.0000 0.80517  0.92701  0.63391  Biso   1.000  O
  O18      1.0000 0.92701  0.80517  0.63391  Biso   1.000  O
  O19      1.0000 0.92701  0.63391  0.80517  Biso   1.000  O
  O20      1.0000 0.80517  0.63391  0.92701  Biso   1.000  O
  O21      1.0000 0.63391  0.92701  0.63391  Biso   1.000  O
  O22      1.0000 0.63391  0.80517  0.63391  Biso   1.000  O
  O23      1.0000 0.80517  0.63391  0.63391  Biso   1.000  O
  O24      1.0000 0.92701  0.63391  0.63391  Biso   1.000  O
  O25      1.0000 0.63391  0.92701  0.80517  Biso   1.000  O
  O26      1.0000 0.63391  0.80517  0.92701  Biso   1.000  O
  Zn9      1.0000 0.98593  0.59337  0.26071  Biso   1.000  Zn
  Zn10     1.0000 0.98588  0.59342  0.43163  Biso   1.000  Zn
  Zn11     1.0000 0.98593  0.76434  0.26071  Biso   1.000  Zn
  Zn12     1.0000 0.15685  0.59342  0.26066  Biso   1.000  Zn
  Zn13     1.0000 0.57820  0.18573  0.83933  Biso   1.000  Zn
  Zn14     1.0000 0.57824  0.18569  0.66840  Biso   1.000  Zn
  Zn15     1.0000 0.57820  0.01476  0.83933  Biso   1.000  Zn
  Zn16     1.0000 0.40727  0.18568  0.83938  Biso   1.000  Zn
  C49      1.0000 0.80890  0.41541  0.45887  Biso   1.000  C
  C50      1.0000 0.82057  0.79176  0.06983  Biso   1.000  C
  C51      1.0000 0.19775  0.41479  0.07082  Biso   1.000  C
  C52      1.0000 0.80792  0.41639  0.58848  Biso   1.000  C
  C53      1.0000 0.19794  0.41441  0.58947  Biso   1.000  C
  C54      1.0000 0.82096  0.79158  0.58829  Biso   1.000  C
  C55      1.0000 0.19774  0.93484  0.07004  Biso   1.000  C
  C56      1.0000 0.80870  0.93583  0.06805  Biso   1.000  C
  C57      1.0000 0.80968  0.93466  0.45888  Biso   1.000  C
  C58      1.0000 0.34100  0.79156  0.06905  Biso   1.000  C
  C59      1.0000 0.32834  0.41619  0.45908  Biso   1.000  C
  C60      1.0000 0.32716  0.41716  0.06845  Biso   1.000  C
  C61      1.0000 0.75522  0.36370  0.64117  Biso   1.000  C
  C62      1.0000 0.75721  0.98732  0.01657  Biso   1.000  C
  C63      1.0000 0.38003  0.36429  0.01558  Biso   1.000  C
  C64      1.0000 0.75621  0.36272  0.51156  Biso   1.000  C
  C65      1.0000 0.37983  0.36470  0.51056  Biso   1.000  C
  C66      1.0000 0.75681  0.98753  0.51175  Biso   1.000  C
  C67      1.0000 0.38004  0.85793  0.01636  Biso   1.000  C
  C68      1.0000 0.75543  0.85693  0.01834  Biso   1.000  C
  C69      1.0000 0.75445  0.85812  0.64116  Biso   1.000  C
  C70      1.0000 0.25043  0.98753  0.01734  Biso   1.000  C
  C71      1.0000 0.24943  0.36292  0.64096  Biso   1.000  C
  C72      1.0000 0.25062  0.36193  0.01795  Biso   1.000  C
  C73      1.0000 0.83513  0.44262  0.49695  Biso   1.000  C
  C74      1.0000 0.89301  0.50050  0.43907  Biso   1.000  C
  C75      1.0000 0.24947  0.82964  0.09626  Biso   1.000  C
  C76      1.0000 0.16429  0.77178  0.16778  Biso   1.000  C
  C77      1.0000 0.72900  0.33649  0.60308  Biso   1.000  C
  C78      1.0000 0.67112  0.27861  0.66096  Biso   1.000  C
  C79      1.0000 0.34196  0.94945  0.99013  Biso   1.000  C
  C80      1.0000 0.39983  0.00733  0.93225  Biso   1.000  C
  C81      1.0000 0.23602  0.44241  0.09607  Biso   1.000  C
  C82      1.0000 0.16476  0.50003  0.16731  Biso   1.000  C
  C83      1.0000 0.83493  0.84353  0.49715  Biso   1.000  C
  C84      1.0000 0.89253  0.77225  0.43954  Biso   1.000  C
  C85      1.0000 0.34176  0.33668  0.99033  Biso   1.000  C
  C86      1.0000 0.39936  0.27908  0.93273  Biso   1.000  C
  C87      1.0000 0.72919  0.94926  0.60289  Biso   1.000  C
  C88      1.0000 0.67159  0.00686  0.66049  Biso   1.000  C
  C89      1.0000 0.83474  0.84371  0.09587  Biso   1.000  C
  C90      1.0000 0.89233  0.77245  0.16711  Biso   1.000  C
  C91      1.0000 0.23621  0.44222  0.49735  Biso   1.000  C
  C92      1.0000 0.16496  0.49983  0.43974  Biso   1.000  C
  C93      1.0000 0.72939  0.94905  0.99053  Biso   1.000  C
  C94      1.0000 0.67179  0.00665  0.93292  Biso   1.000  C
  C95      1.0000 0.34156  0.33688  0.60269  Biso   1.000  C
  C96      1.0000 0.39916  0.27928  0.66029  Biso   1.000  C
  O27      1.0000 0.91372  0.52279  0.35598  Biso   1.000  O
  O28      1.0000 0.08203  0.52088  0.19007  Biso   1.000  O
  O29      1.0000 0.91413  0.68828  0.18972  Biso   1.000  O
  O30      1.0000 0.91530  0.52121  0.47916  Biso   1.000  O
  O31      1.0000 0.91339  0.68952  0.47866  Biso   1.000  O
  O32      1.0000 0.08079  0.52162  0.47951  Biso   1.000  O
  O33      1.0000 0.08120  0.81187  0.18850  Biso   1.000  O
  O34      1.0000 0.91530  0.81137  0.35681  Biso   1.000  O
  O35      1.0000 0.91494  0.81222  0.18891  Biso   1.000  O
  O36      1.0000 0.20438  0.68869  0.19007  Biso   1.000  O
  O37      1.0000 0.20388  0.52279  0.18816  Biso   1.000  O
  O38      1.0000 0.20473  0.52244  0.35557  Biso   1.000  O
  O39      1.0000 0.65041  0.25632  0.74405  Biso   1.000  O
  O40      1.0000 0.48210  0.25823  0.90996  Biso   1.000  O
  O41      1.0000 0.64999  0.09083  0.91031  Biso   1.000  O
  O42      1.0000 0.64883  0.25790  0.62088  Biso   1.000  O
  O43      1.0000 0.65074  0.08959  0.62137  Biso   1.000  O
  O44      1.0000 0.48334  0.25748  0.62052  Biso   1.000  O
  O45      1.0000 0.48292  0.96724  0.91154  Biso   1.000  O
  O46      1.0000 0.64883  0.96774  0.74323  Biso   1.000  O
  O47      1.0000 0.64918  0.96689  0.91112  Biso   1.000  O
  O48      1.0000 0.35975  0.09041  0.90996  Biso   1.000  O
  O49      1.0000 0.36024  0.25631  0.91187  Biso   1.000  O
  O50      1.0000 0.35939  0.25667  0.74447  Biso   1.000  O
  O51      1.0000 0.02865  0.63614  0.30343  Biso   1.000  O
  O52      1.0000 0.53548  0.14297  0.79661  Biso   1.000  O
  H25      1.0000 0.84175  0.71621  0.09247  Biso   1.000  H
  H26      1.0000 0.83134  0.96757  0.08923  Biso   1.000  H
  H27      1.0000 0.73603  0.06287  0.99393  Biso   1.000  H
  H28      1.0000 0.74645  0.81151  0.99716  Biso   1.000  H
  H29      1.0000 0.83256  0.96641  0.38333  Biso   1.000  H
  H30      1.0000 0.73589  0.06307  0.48001  Biso   1.000  H
  H31      1.0000 0.12221  0.43571  0.09370  Biso   1.000  H
  H32      1.0000 0.21888  0.33904  0.99703  Biso   1.000  H
  H33      1.0000 0.82941  0.43870  0.62023  Biso   1.000  H
  H34      1.0000 0.12239  0.43558  0.62121  Biso   1.000  H
  H35      1.0000 0.21868  0.06308  0.99585  Biso   1.000  H
  H36      1.0000 0.21769  0.34028  0.71651  Biso   1.000  H
  H37      1.0000 0.84188  0.71604  0.62003  Biso   1.000  H
  H38      1.0000 0.74521  0.81270  0.71670  Biso   1.000  H
  H39      1.0000 0.35890  0.44004  0.08937  Biso   1.000  H
  H40      1.0000 0.45557  0.34337  0.99270  Biso   1.000  H
  H41      1.0000 0.46924  0.81250  0.99405  Biso   1.000  H
  H42      1.0000 0.36008  0.43882  0.38352  Biso   1.000  H
  H43      1.0000 0.45538  0.34352  0.47882  Biso   1.000  H
  H44      1.0000 0.37275  0.71600  0.09054  Biso   1.000  H
  H45      1.0000 0.73472  0.34041  0.47981  Biso   1.000  H
  H46      1.0000 0.83121  0.43690  0.38331  Biso   1.000  H
  H47      1.0000 0.73291  0.34221  0.71672  Biso   1.000  H
  H48      1.0000 0.12219  0.96659  0.09235  Biso   1.000  H
