data_image0
_cell_length_a       18.2359
_cell_length_b       18.2359
_cell_length_c       18.2359
_cell_angle_alpha    60
_cell_angle_beta     60
_cell_angle_gamma    60

_symmetry_space_group_name_H-M    "P 1"
_symmetry_int_tables_number       1

loop_
  _symmetry_equiv_pos_as_xyz
  'x, y, z'

loop_
  _atom_site_label
  _atom_site_occupancy
  _atom_site_fract_x
  _atom_site_fract_y
  _atom_site_fract_z
  _atom_site_thermal_displace_type
  _atom_site_B_iso_or_equiv
  _atom_site_type_symbol
  Zn1      1.0000 0.29356  0.29357  0.11930  Biso   1.000  Zn
  Zn2      1.0000 0.29356  0.29357  0.29357  Biso   1.000  Zn
  Zn3      1.0000 0.11929  0.29357  0.29357  Biso   1.000  Zn
  Zn4      1.0000 0.29356  0.11930  0.29357  Biso   1.000  Zn
  Zn5      1.0000 0.70644  0.70643  0.88070  Biso   1.000  Zn
  Zn6      1.0000 0.70644  0.70643  0.70643  Biso   1.000  Zn
  Zn7      1.0000 0.70644  0.88070  0.70643  Biso   1.000  Zn
  Zn8      1.0000 0.88071  0.70643  0.70643  Biso   1.000  Zn
  H1       1.0000 0.45600  0.45600  0.93640  Biso   1.000  H
  H2       1.0000 0.45600  0.45600  0.15160  Biso   1.000  H
  H3       1.0000 0.93640  0.15160  0.45600  Biso   1.000  H
  H4       1.0000 0.15160  0.93640  0.45600  Biso   1.000  H
  H5       1.0000 0.45600  0.93640  0.15160  Biso   1.000  H
  H6       1.0000 0.45600  0.15160  0.93640  Biso   1.000  H
  H7       1.0000 0.93640  0.45600  0.45600  Biso   1.000  H
  H8       1.0000 0.15160  0.45600  0.45600  Biso   1.000  H
  H9       1.0000 0.45600  0.15160  0.45600  Biso   1.000  H
  H10      1.0000 0.45600  0.93640  0.45600  Biso   1.000  H
  H11      1.0000 0.93640  0.45600  0.15160  Biso   1.000  H
  H12      1.0000 0.15160  0.45600  0.93640  Biso   1.000  H
  H13      1.0000 0.54400  0.54400  0.06360  Biso   1.000  H
  H14      1.0000 0.54400  0.54400  0.84840  Biso   1.000  H
  H15      1.0000 0.84840  0.06360  0.54400  Biso   1.000  H
  H16      1.0000 0.06360  0.84840  0.54400  Biso   1.000  H
  H17      1.0000 0.06360  0.54400  0.84840  Biso   1.000  H
  H18      1.0000 0.84840  0.54400  0.06360  Biso   1.000  H
  H19      1.0000 0.54400  0.06360  0.54400  Biso   1.000  H
  H20      1.0000 0.54400  0.84840  0.54400  Biso   1.000  H
  H21      1.0000 0.84840  0.54400  0.54400  Biso   1.000  H
  H22      1.0000 0.06360  0.54400  0.54400  Biso   1.000  H
  H23      1.0000 0.54400  0.06360  0.84840  Biso   1.000  H
  H24      1.0000 0.54400  0.84840  0.06360  Biso   1.000  H
  C1       1.0000 0.47360  0.47360  0.96320  Biso   1.000  C
  C2       1.0000 0.47360  0.47360  0.08960  Biso   1.000  C
  C3       1.0000 0.96320  0.08960  0.47360  Biso   1.000  C
  C4       1.0000 0.08960  0.96320  0.47360  Biso   1.000  C
  C5       1.0000 0.47360  0.96320  0.08960  Biso   1.000  C
  C6       1.0000 0.47360  0.08960  0.96320  Biso   1.000  C
  C7       1.0000 0.96320  0.47360  0.47360  Biso   1.000  C
  C8       1.0000 0.08960  0.47360  0.47360  Biso   1.000  C
  C9       1.0000 0.47360  0.08960  0.47360  Biso   1.000  C
  C10      1.0000 0.47360  0.96320  0.47360  Biso   1.000  C
  C11      1.0000 0.96320  0.47360  0.08960  Biso   1.000  C
  C12      1.0000 0.08960  0.47360  0.96320  Biso   1.000  C
  C13      1.0000 0.52640  0.52640  0.03680  Biso   1.000  C
  C14      1.0000 0.52640  0.52640  0.91040  Biso   1.000  C
  C15      1.0000 0.91040  0.03680  0.52640  Biso   1.000  C
  C16      1.0000 0.03680  0.91040  0.52640  Biso   1.000  C
  C17      1.0000 0.03680  0.52640  0.91040  Biso   1.000  C
  C18      1.0000 0.91040  0.52640  0.03680  Biso   1.000  C
  C19      1.0000 0.52640  0.03680  0.52640  Biso   1.000  C
  C20      1.0000 0.52640  0.91040  0.52640  Biso   1.000  C
  C21      1.0000 0.91040  0.52640  0.52640  Biso   1.000  C
  C22      1.0000 0.03680  0.52640  0.52640  Biso   1.000  C
  C23      1.0000 0.52640  0.03680  0.91040  Biso   1.000  C
  C24      1.0000 0.52640  0.91040  0.03680  Biso   1.000  C
  C25      1.0000 0.38860  0.38860  0.11140  Biso   1.000  C
  C26      1.0000 0.44630  0.44630  0.05370  Biso   1.000  C
  C27      1.0000 0.11140  0.11140  0.38860  Biso   1.000  C
  C28      1.0000 0.05370  0.05370  0.44630  Biso   1.000  C
  C29      1.0000 0.38860  0.11140  0.11140  Biso   1.000  C
  C30      1.0000 0.44630  0.05370  0.05370  Biso   1.000  C
  C31      1.0000 0.11140  0.38860  0.38860  Biso   1.000  C
  C32      1.0000 0.05370  0.44630  0.44630  Biso   1.000  C
  C33      1.0000 0.38860  0.11140  0.38860  Biso   1.000  C
  C34      1.0000 0.44630  0.05370  0.44630  Biso   1.000  C
  C35      1.0000 0.11140  0.38860  0.11140  Biso   1.000  C
  C36      1.0000 0.05370  0.44630  0.05370  Biso   1.000  C
  C37      1.0000 0.61140  0.61140  0.88860  Biso   1.000  C
  C38      1.0000 0.55370  0.55370  0.94630  Biso   1.000  C
  C39      1.0000 0.88860  0.88860  0.61140  Biso   1.000  C
  C40      1.0000 0.94630  0.94630  0.55370  Biso   1.000  C
  C41      1.0000 0.88860  0.61140  0.88860  Biso   1.000  C
  C42      1.0000 0.94630  0.55370  0.94630  Biso   1.000  C
  C43      1.0000 0.61140  0.88860  0.61140  Biso   1.000  C
  C44      1.0000 0.55370  0.94630  0.55370  Biso   1.000  C
  C45      1.0000 0.88860  0.61140  0.61140  Biso   1.000  C
  C46      1.0000 0.94630  0.55370  0.55370  Biso   1.000  C
  C47      1.0000 0.61140  0.88860  0.88860  Biso   1.000  C
  C48      1.0000 0.55370  0.94630  0.94630  Biso   1.000  C
  O1       1.0000 0.25000  0.25000  0.25000  Biso   1.000  O
  O2       1.0000 0.75000  0.75000  0.75000  Biso   1.000  O
  O3       1.0000 0.36605  0.36605  0.07323  Biso   1.000  O
  O4       1.0000 0.36605  0.36605  0.19467  Biso   1.000  O
  O5       1.0000 0.07323  0.19467  0.36605  Biso   1.000  O
  O6       1.0000 0.19467  0.07323  0.36605  Biso   1.000  O
  O7       1.0000 0.36605  0.07323  0.19467  Biso   1.000  O
  O8       1.0000 0.36605  0.19467  0.07323  Biso   1.000  O
  O9       1.0000 0.07323  0.36605  0.36605  Biso   1.000  O
  O10      1.0000 0.19467  0.36605  0.36605  Biso   1.000  O
  O11      1.0000 0.36605  0.19467  0.36605  Biso   1.000  O
  O12      1.0000 0.36605  0.07323  0.36605  Biso   1.000  O
  O13      1.0000 0.07323  0.36605  0.19467  Biso   1.000  O
  O14      1.0000 0.19467  0.36605  0.07323  Biso   1.000  O
  O15      1.0000 0.63395  0.63395  0.92677  Biso   1.000  O
  O16      1.0000 0.63395  0.63395  0.80533  Biso   1.000  O
  O17      1.0000 0.80533  0.92677  0.63395  Biso   1.000  O
  O18      1.0000 0.92677  0.80533  0.63395  Biso   1.000  O
  O19      1.0000 0.92677  0.63395  0.80533  Biso   1.000  O
  O20      1.0000 0.80533  0.63395  0.92677  Biso   1.000  O
  O21      1.0000 0.63395  0.92677  0.63395  Biso   1.000  O
  O22      1.0000 0.63395  0.80533  0.63395  Biso   1.000  O
  O23      1.0000 0.80533  0.63395  0.63395  Biso   1.000  O
  O24      1.0000 0.92677  0.63395  0.63395  Biso   1.000  O
  O25      1.0000 0.63395  0.92677  0.80533  Biso   1.000  O
  O26      1.0000 0.63395  0.80533  0.92677  Biso   1.000  O
  Zn9      1.0000 0.76823  0.26212  0.38168  Biso   1.000  Zn
  Zn10     1.0000 0.58497  0.26212  0.56493  Biso   1.000  Zn
  Zn11     1.0000 0.58497  0.44538  0.38168  Biso   1.000  Zn
  Zn12     1.0000 0.58497  0.26212  0.38168  Biso   1.000  Zn
  Zn13     1.0000 0.16457  0.85374  0.80210  Biso   1.000  Zn
  Zn14     1.0000 0.99338  0.85374  0.97329  Biso   1.000  Zn
  Zn15     1.0000 0.16457  0.85374  0.97329  Biso   1.000  Zn
  Zn16     1.0000 0.16457  0.68254  0.97329  Biso   1.000  Zn
  H25      1.0000 0.02209  0.01615  0.61977  Biso   1.000  H
  H26      1.0000 0.81105  0.01615  0.83081  Biso   1.000  H
  H27      1.0000 0.32698  0.71126  0.13570  Biso   1.000  H
  H28      1.0000 0.32698  0.50022  0.13570  Biso   1.000  H
  H29      1.0000 0.32698  0.50022  0.83081  Biso   1.000  H
  H30      1.0000 0.32698  0.71126  0.61977  Biso   1.000  H
  H31      1.0000 0.02209  0.01615  0.13570  Biso   1.000  H
  H32      1.0000 0.81105  0.01615  0.13570  Biso   1.000  H
  H33      1.0000 0.81105  0.71126  0.13570  Biso   1.000  H
  H34      1.0000 0.02209  0.50022  0.13570  Biso   1.000  H
  H35      1.0000 0.32698  0.01615  0.83081  Biso   1.000  H
  H36      1.0000 0.32698  0.01615  0.61977  Biso   1.000  H
  C49      1.0000 0.91272  0.08264  0.59616  Biso   1.000  C
  C50      1.0000 0.96054  0.03265  0.64833  Biso   1.000  C
  C51      1.0000 0.78744  0.08264  0.72144  Biso   1.000  C
  C52      1.0000 0.83961  0.03265  0.76926  Biso   1.000  C
  C53      1.0000 0.39347  0.60189  0.20219  Biso   1.000  C
  C54      1.0000 0.34348  0.64970  0.15220  Biso   1.000  C
  C55      1.0000 0.39347  0.47661  0.20219  Biso   1.000  C
  C56      1.0000 0.34348  0.52877  0.15220  Biso   1.000  C
  C57      1.0000 0.39347  0.47661  0.72144  Biso   1.000  C
  C58      1.0000 0.34348  0.52877  0.76926  Biso   1.000  C
  C59      1.0000 0.39347  0.60189  0.59616  Biso   1.000  C
  C60      1.0000 0.34348  0.64970  0.64833  Biso   1.000  C
  C61      1.0000 0.91272  0.08264  0.20219  Biso   1.000  C
  C62      1.0000 0.96054  0.03265  0.15220  Biso   1.000  C
  C63      1.0000 0.78744  0.08264  0.20219  Biso   1.000  C
  C64      1.0000 0.83961  0.03265  0.15220  Biso   1.000  C
  C65      1.0000 0.78744  0.60189  0.20219  Biso   1.000  C
  C66      1.0000 0.83961  0.64970  0.15220  Biso   1.000  C
  C67      1.0000 0.91272  0.47661  0.20219  Biso   1.000  C
  C68      1.0000 0.96054  0.52877  0.15220  Biso   1.000  C
  C69      1.0000 0.39347  0.08264  0.72144  Biso   1.000  C
  C70      1.0000 0.34348  0.03265  0.76926  Biso   1.000  C
  C71      1.0000 0.39347  0.08264  0.59616  Biso   1.000  C
  C72      1.0000 0.34348  0.03265  0.64833  Biso   1.000  C
  C73      1.0000 0.76264  0.17007  0.57136  Biso   1.000  C
  C74      1.0000 0.82587  0.10684  0.63459  Biso   1.000  C
  C75      1.0000 0.98188  0.95084  0.79060  Biso   1.000  C
  C76      1.0000 0.93198  0.00073  0.74070  Biso   1.000  C
  C77      1.0000 0.48091  0.45181  0.28963  Biso   1.000  C
  C78      1.0000 0.41768  0.51504  0.22640  Biso   1.000  C
  C79      1.0000 0.26167  0.67104  0.07039  Biso   1.000  C
  C80      1.0000 0.31157  0.62115  0.12029  Biso   1.000  C
  C81      1.0000 0.48091  0.45181  0.57136  Biso   1.000  C
  C82      1.0000 0.41768  0.51504  0.63459  Biso   1.000  C
  C83      1.0000 0.26167  0.67104  0.79060  Biso   1.000  C
  C84      1.0000 0.31157  0.62115  0.74070  Biso   1.000  C
  C85      1.0000 0.76264  0.17007  0.28963  Biso   1.000  C
  C86      1.0000 0.82587  0.10684  0.22640  Biso   1.000  C
  C87      1.0000 0.98188  0.95084  0.07039  Biso   1.000  C
  C88      1.0000 0.93198  0.00073  0.12029  Biso   1.000  C
  C89      1.0000 0.76264  0.45181  0.28963  Biso   1.000  C
  C90      1.0000 0.82587  0.51504  0.22640  Biso   1.000  C
  C91      1.0000 0.98188  0.67104  0.07039  Biso   1.000  C
  C92      1.0000 0.93198  0.62115  0.12029  Biso   1.000  C
  C93      1.0000 0.48091  0.17007  0.57136  Biso   1.000  C
  C94      1.0000 0.41768  0.10684  0.63459  Biso   1.000  C
  C95      1.0000 0.26167  0.95084  0.79060  Biso   1.000  C
  C96      1.0000 0.31157  0.00073  0.74070  Biso   1.000  C
  O27      1.0000 0.12177  0.81094  0.93049  Biso   1.000  O
  O28      1.0000 0.63980  0.30493  0.42449  Biso   1.000  O
  O29      1.0000 0.80098  0.19181  0.48956  Biso   1.000  O
  O30      1.0000 0.06615  0.92624  0.75552  Biso   1.000  O
  O31      1.0000 0.68084  0.19181  0.60970  Biso   1.000  O
  O32      1.0000 0.94680  0.92624  0.87487  Biso   1.000  O
  O33      1.0000 0.50264  0.49014  0.31136  Biso   1.000  O
  O34      1.0000 0.23707  0.75532  0.04579  Biso   1.000  O
  O35      1.0000 0.50264  0.37001  0.31136  Biso   1.000  O
  O36      1.0000 0.23707  0.63597  0.04579  Biso   1.000  O
  O37      1.0000 0.50264  0.37001  0.60970  Biso   1.000  O
  O38      1.0000 0.23707  0.63597  0.87487  Biso   1.000  O
  O39      1.0000 0.50264  0.49014  0.48956  Biso   1.000  O
  O40      1.0000 0.23707  0.75532  0.75552  Biso   1.000  O
  O41      1.0000 0.80098  0.19181  0.31136  Biso   1.000  O
  O42      1.0000 0.06615  0.92624  0.04579  Biso   1.000  O
  O43      1.0000 0.68084  0.19181  0.31136  Biso   1.000  O
  O44      1.0000 0.94680  0.92624  0.04579  Biso   1.000  O
  O45      1.0000 0.68084  0.49014  0.31136  Biso   1.000  O
  O46      1.0000 0.94680  0.75532  0.04579  Biso   1.000  O
  O47      1.0000 0.80098  0.37001  0.31136  Biso   1.000  O
  O48      1.0000 0.06615  0.63597  0.04579  Biso   1.000  O
  O49      1.0000 0.50264  0.19181  0.60970  Biso   1.000  O
  O50      1.0000 0.23707  0.92624  0.87487  Biso   1.000  O
  O51      1.0000 0.50264  0.19181  0.48956  Biso   1.000  O
  O52      1.0000 0.23707  0.92624  0.75552  Biso   1.000  O
