data_image0
_cell_length_a       18.2422
_cell_length_b       18.2422
_cell_length_c       18.2422
_cell_angle_alpha    60
_cell_angle_beta     60
_cell_angle_gamma    60

_symmetry_space_group_name_H-M    "P 1"
_symmetry_int_tables_number       1

loop_
  _symmetry_equiv_pos_as_xyz
  'x, y, z'

loop_
  _atom_site_label
  _atom_site_occupancy
  _atom_site_fract_x
  _atom_site_fract_y
  _atom_site_fract_z
  _atom_site_thermal_displace_type
  _atom_site_B_iso_or_equiv
  _atom_site_type_symbol
  Zn1      1.0000 0.29356  0.29355  0.11934  Biso   1.000  Zn
  Zn2      1.0000 0.29356  0.29355  0.29355  Biso   1.000  Zn
  Zn3      1.0000 0.11935  0.29355  0.29355  Biso   1.000  Zn
  Zn4      1.0000 0.29356  0.11934  0.29355  Biso   1.000  Zn
  Zn5      1.0000 0.70644  0.70645  0.88066  Biso   1.000  Zn
  Zn6      1.0000 0.70644  0.70645  0.70645  Biso   1.000  Zn
  Zn7      1.0000 0.70644  0.88066  0.70645  Biso   1.000  Zn
  Zn8      1.0000 0.88065  0.70645  0.70645  Biso   1.000  Zn
  H1       1.0000 0.45610  0.45610  0.93590  Biso   1.000  H
  H2       1.0000 0.45610  0.45610  0.15190  Biso   1.000  H
  H3       1.0000 0.93590  0.15190  0.45610  Biso   1.000  H
  H4       1.0000 0.15190  0.93590  0.45610  Biso   1.000  H
  H5       1.0000 0.45610  0.93590  0.15190  Biso   1.000  H
  H6       1.0000 0.45610  0.15190  0.93590  Biso   1.000  H
  H7       1.0000 0.93590  0.45610  0.45610  Biso   1.000  H
  H8       1.0000 0.15190  0.45610  0.45610  Biso   1.000  H
  H9       1.0000 0.45610  0.15190  0.45610  Biso   1.000  H
  H10      1.0000 0.45610  0.93590  0.45610  Biso   1.000  H
  H11      1.0000 0.93590  0.45610  0.15190  Biso   1.000  H
  H12      1.0000 0.15190  0.45610  0.93590  Biso   1.000  H
  H13      1.0000 0.54390  0.54390  0.06410  Biso   1.000  H
  H14      1.0000 0.54390  0.54390  0.84810  Biso   1.000  H
  H15      1.0000 0.84810  0.06410  0.54390  Biso   1.000  H
  H16      1.0000 0.06410  0.84810  0.54390  Biso   1.000  H
  H17      1.0000 0.06410  0.54390  0.84810  Biso   1.000  H
  H18      1.0000 0.84810  0.54390  0.06410  Biso   1.000  H
  H19      1.0000 0.54390  0.06410  0.54390  Biso   1.000  H
  H20      1.0000 0.54390  0.84810  0.54390  Biso   1.000  H
  H21      1.0000 0.84810  0.54390  0.54390  Biso   1.000  H
  H22      1.0000 0.06410  0.54390  0.54390  Biso   1.000  H
  H23      1.0000 0.54390  0.06410  0.84810  Biso   1.000  H
  H24      1.0000 0.54390  0.84810  0.06410  Biso   1.000  H
  C1       1.0000 0.47369  0.47369  0.96285  Biso   1.000  C
  C2       1.0000 0.47369  0.47369  0.08977  Biso   1.000  C
  C3       1.0000 0.96285  0.08977  0.47369  Biso   1.000  C
  C4       1.0000 0.08977  0.96285  0.47369  Biso   1.000  C
  C5       1.0000 0.47369  0.96285  0.08977  Biso   1.000  C
  C6       1.0000 0.47369  0.08977  0.96285  Biso   1.000  C
  C7       1.0000 0.96285  0.47369  0.47369  Biso   1.000  C
  C8       1.0000 0.08977  0.47369  0.47369  Biso   1.000  C
  C9       1.0000 0.47369  0.08977  0.47369  Biso   1.000  C
  C10      1.0000 0.47369  0.96285  0.47369  Biso   1.000  C
  C11      1.0000 0.96285  0.47369  0.08977  Biso   1.000  C
  C12      1.0000 0.08977  0.47369  0.96285  Biso   1.000  C
  C13      1.0000 0.52631  0.52631  0.03715  Biso   1.000  C
  C14      1.0000 0.52631  0.52631  0.91023  Biso   1.000  C
  C15      1.0000 0.91023  0.03715  0.52631  Biso   1.000  C
  C16      1.0000 0.03715  0.91023  0.52631  Biso   1.000  C
  C17      1.0000 0.03715  0.52631  0.91023  Biso   1.000  C
  C18      1.0000 0.91023  0.52631  0.03715  Biso   1.000  C
  C19      1.0000 0.52631  0.03715  0.52631  Biso   1.000  C
  C20      1.0000 0.52631  0.91023  0.52631  Biso   1.000  C
  C21      1.0000 0.91023  0.52631  0.52631  Biso   1.000  C
  C22      1.0000 0.03715  0.52631  0.52631  Biso   1.000  C
  C23      1.0000 0.52631  0.03715  0.91023  Biso   1.000  C
  C24      1.0000 0.52631  0.91023  0.03715  Biso   1.000  C
  C25      1.0000 0.38870  0.38870  0.11130  Biso   1.000  C
  C26      1.0000 0.44610  0.44610  0.05390  Biso   1.000  C
  C27      1.0000 0.11130  0.11130  0.38870  Biso   1.000  C
  C28      1.0000 0.05390  0.05390  0.44610  Biso   1.000  C
  C29      1.0000 0.38870  0.11130  0.11130  Biso   1.000  C
  C30      1.0000 0.44610  0.05390  0.05390  Biso   1.000  C
  C31      1.0000 0.11130  0.38870  0.38870  Biso   1.000  C
  C32      1.0000 0.05390  0.44610  0.44610  Biso   1.000  C
  C33      1.0000 0.38870  0.11130  0.38870  Biso   1.000  C
  C34      1.0000 0.44610  0.05390  0.44610  Biso   1.000  C
  C35      1.0000 0.11130  0.38870  0.11130  Biso   1.000  C
  C36      1.0000 0.05390  0.44610  0.05390  Biso   1.000  C
  C37      1.0000 0.61130  0.61130  0.88870  Biso   1.000  C
  C38      1.0000 0.55390  0.55390  0.94610  Biso   1.000  C
  C39      1.0000 0.88870  0.88870  0.61130  Biso   1.000  C
  C40      1.0000 0.94610  0.94610  0.55390  Biso   1.000  C
  C41      1.0000 0.88870  0.61130  0.88870  Biso   1.000  C
  C42      1.0000 0.94610  0.55390  0.94610  Biso   1.000  C
  C43      1.0000 0.61130  0.88870  0.61130  Biso   1.000  C
  C44      1.0000 0.55390  0.94610  0.55390  Biso   1.000  C
  C45      1.0000 0.88870  0.61130  0.61130  Biso   1.000  C
  C46      1.0000 0.94610  0.55390  0.55390  Biso   1.000  C
  C47      1.0000 0.61130  0.88870  0.88870  Biso   1.000  C
  C48      1.0000 0.55390  0.94610  0.94610  Biso   1.000  C
  O1       1.0000 0.25000  0.25000  0.25000  Biso   1.000  O
  O2       1.0000 0.75000  0.75000  0.75000  Biso   1.000  O
  O3       1.0000 0.36609  0.36609  0.07323  Biso   1.000  O
  O4       1.0000 0.36609  0.36609  0.19459  Biso   1.000  O
  O5       1.0000 0.07323  0.19459  0.36609  Biso   1.000  O
  O6       1.0000 0.19459  0.07323  0.36609  Biso   1.000  O
  O7       1.0000 0.36609  0.07323  0.19459  Biso   1.000  O
  O8       1.0000 0.36609  0.19459  0.07323  Biso   1.000  O
  O9       1.0000 0.07323  0.36609  0.36609  Biso   1.000  O
  O10      1.0000 0.19459  0.36609  0.36609  Biso   1.000  O
  O11      1.0000 0.36609  0.19459  0.36609  Biso   1.000  O
  O12      1.0000 0.36609  0.07323  0.36609  Biso   1.000  O
  O13      1.0000 0.07323  0.36609  0.19459  Biso   1.000  O
  O14      1.0000 0.19459  0.36609  0.07323  Biso   1.000  O
  O15      1.0000 0.63391  0.63391  0.92677  Biso   1.000  O
  O16      1.0000 0.63391  0.63391  0.80541  Biso   1.000  O
  O17      1.0000 0.80541  0.92677  0.63391  Biso   1.000  O
  O18      1.0000 0.92677  0.80541  0.63391  Biso   1.000  O
  O19      1.0000 0.92677  0.63391  0.80541  Biso   1.000  O
  O20      1.0000 0.80541  0.63391  0.92677  Biso   1.000  O
  O21      1.0000 0.63391  0.92677  0.63391  Biso   1.000  O
  O22      1.0000 0.63391  0.80541  0.63391  Biso   1.000  O
  O23      1.0000 0.80541  0.63391  0.63391  Biso   1.000  O
  O24      1.0000 0.92677  0.63391  0.63391  Biso   1.000  O
  O25      1.0000 0.63391  0.92677  0.80541  Biso   1.000  O
  O26      1.0000 0.63391  0.80541  0.92677  Biso   1.000  O
  Zn9      1.0000 0.76770  0.26194  0.38141  Biso   1.000  Zn
  Zn10     1.0000 0.58388  0.26194  0.56523  Biso   1.000  Zn
  Zn11     1.0000 0.58388  0.44576  0.38141  Biso   1.000  Zn
  Zn12     1.0000 0.58388  0.26194  0.38141  Biso   1.000  Zn
  Zn13     1.0000 0.16308  0.85384  0.80223  Biso   1.000  Zn
  Zn14     1.0000 0.99200  0.85384  0.97331  Biso   1.000  Zn
  Zn15     1.0000 0.16308  0.85384  0.97331  Biso   1.000  Zn
  Zn16     1.0000 0.16308  0.68276  0.97331  Biso   1.000  Zn
  H25      1.0000 0.02069  0.01614  0.62004  Biso   1.000  H
  H26      1.0000 0.80980  0.01614  0.83092  Biso   1.000  H
  H27      1.0000 0.32537  0.71145  0.13560  Biso   1.000  H
  H28      1.0000 0.32537  0.50057  0.13560  Biso   1.000  H
  H29      1.0000 0.32537  0.50057  0.83092  Biso   1.000  H
  H30      1.0000 0.32537  0.71145  0.62004  Biso   1.000  H
  H31      1.0000 0.02069  0.01614  0.13560  Biso   1.000  H
  H32      1.0000 0.80980  0.01614  0.13560  Biso   1.000  H
  H33      1.0000 0.80980  0.71145  0.13560  Biso   1.000  H
  H34      1.0000 0.02069  0.50057  0.13560  Biso   1.000  H
  H35      1.0000 0.32537  0.01614  0.83092  Biso   1.000  H
  H36      1.0000 0.32537  0.01614  0.62004  Biso   1.000  H
  C49      1.0000 0.91140  0.08258  0.59644  Biso   1.000  C
  C50      1.0000 0.95918  0.03262  0.64857  Biso   1.000  C
  C51      1.0000 0.78621  0.08258  0.72163  Biso   1.000  C
  C52      1.0000 0.83834  0.03262  0.76941  Biso   1.000  C
  C53      1.0000 0.39182  0.60216  0.20205  Biso   1.000  C
  C54      1.0000 0.34186  0.64995  0.15209  Biso   1.000  C
  C55      1.0000 0.39182  0.47697  0.20205  Biso   1.000  C
  C56      1.0000 0.34186  0.52910  0.15209  Biso   1.000  C
  C57      1.0000 0.39182  0.47697  0.72163  Biso   1.000  C
  C58      1.0000 0.34186  0.52910  0.76941  Biso   1.000  C
  C59      1.0000 0.39182  0.60216  0.59644  Biso   1.000  C
  C60      1.0000 0.34186  0.64995  0.64857  Biso   1.000  C
  C61      1.0000 0.91140  0.08258  0.20205  Biso   1.000  C
  C62      1.0000 0.95918  0.03262  0.15209  Biso   1.000  C
  C63      1.0000 0.78621  0.08258  0.20205  Biso   1.000  C
  C64      1.0000 0.83834  0.03262  0.15209  Biso   1.000  C
  C65      1.0000 0.78621  0.60216  0.20205  Biso   1.000  C
  C66      1.0000 0.83834  0.64995  0.15209  Biso   1.000  C
  C67      1.0000 0.91140  0.47697  0.20205  Biso   1.000  C
  C68      1.0000 0.95918  0.52910  0.15209  Biso   1.000  C
  C69      1.0000 0.39182  0.08258  0.72163  Biso   1.000  C
  C70      1.0000 0.34186  0.03262  0.76941  Biso   1.000  C
  C71      1.0000 0.39182  0.08258  0.59644  Biso   1.000  C
  C72      1.0000 0.34186  0.03262  0.64857  Biso   1.000  C
  C73      1.0000 0.76143  0.16996  0.57166  Biso   1.000  C
  C74      1.0000 0.82461  0.10677  0.63485  Biso   1.000  C
  C75      1.0000 0.98051  0.95087  0.79074  Biso   1.000  C
  C76      1.0000 0.93065  0.00073  0.74088  Biso   1.000  C
  C77      1.0000 0.47919  0.45219  0.28943  Biso   1.000  C
  C78      1.0000 0.41601  0.51538  0.22624  Biso   1.000  C
  C79      1.0000 0.26011  0.67127  0.07034  Biso   1.000  C
  C80      1.0000 0.30997  0.62141  0.12020  Biso   1.000  C
  C81      1.0000 0.47919  0.45219  0.57166  Biso   1.000  C
  C82      1.0000 0.41601  0.51538  0.63485  Biso   1.000  C
  C83      1.0000 0.26011  0.67127  0.79074  Biso   1.000  C
  C84      1.0000 0.30997  0.62141  0.74088  Biso   1.000  C
  C85      1.0000 0.76143  0.16996  0.28943  Biso   1.000  C
  C86      1.0000 0.82461  0.10677  0.22624  Biso   1.000  C
  C87      1.0000 0.98051  0.95087  0.07034  Biso   1.000  C
  C88      1.0000 0.93065  0.00073  0.12020  Biso   1.000  C
  C89      1.0000 0.76143  0.45219  0.28943  Biso   1.000  C
  C90      1.0000 0.82461  0.51538  0.22624  Biso   1.000  C
  C91      1.0000 0.98051  0.67127  0.07034  Biso   1.000  C
  C92      1.0000 0.93065  0.62141  0.12020  Biso   1.000  C
  C93      1.0000 0.47919  0.16996  0.57166  Biso   1.000  C
  C94      1.0000 0.41601  0.10677  0.63485  Biso   1.000  C
  C95      1.0000 0.26011  0.95087  0.79074  Biso   1.000  C
  C96      1.0000 0.30997  0.00073  0.74088  Biso   1.000  C
  O27      1.0000 0.12031  0.81107  0.93054  Biso   1.000  O
  O28      1.0000 0.63936  0.30472  0.42419  Biso   1.000  O
  O29      1.0000 0.79973  0.19168  0.48991  Biso   1.000  O
  O30      1.0000 0.06472  0.92629  0.75569  Biso   1.000  O
  O31      1.0000 0.67968  0.19168  0.60997  Biso   1.000  O
  O32      1.0000 0.94546  0.92629  0.87496  Biso   1.000  O
  O33      1.0000 0.50091  0.49050  0.31115  Biso   1.000  O
  O34      1.0000 0.23553  0.75549  0.04576  Biso   1.000  O
  O35      1.0000 0.50091  0.37044  0.31115  Biso   1.000  O
  O36      1.0000 0.23553  0.63622  0.04576  Biso   1.000  O
  O37      1.0000 0.50091  0.37044  0.60997  Biso   1.000  O
  O38      1.0000 0.23553  0.63622  0.87496  Biso   1.000  O
  O39      1.0000 0.50091  0.49050  0.48991  Biso   1.000  O
  O40      1.0000 0.23553  0.75549  0.75569  Biso   1.000  O
  O41      1.0000 0.79973  0.19168  0.31115  Biso   1.000  O
  O42      1.0000 0.06472  0.92629  0.04576  Biso   1.000  O
  O43      1.0000 0.67968  0.19168  0.31115  Biso   1.000  O
  O44      1.0000 0.94546  0.92629  0.04576  Biso   1.000  O
  O45      1.0000 0.67968  0.49050  0.31115  Biso   1.000  O
  O46      1.0000 0.94546  0.75549  0.04576  Biso   1.000  O
  O47      1.0000 0.79973  0.37044  0.31115  Biso   1.000  O
  O48      1.0000 0.06472  0.63622  0.04576  Biso   1.000  O
  O49      1.0000 0.50091  0.19168  0.60997  Biso   1.000  O
  O50      1.0000 0.23553  0.92629  0.87496  Biso   1.000  O
  O51      1.0000 0.50091  0.19168  0.48991  Biso   1.000  O
  O52      1.0000 0.23553  0.92629  0.75569  Biso   1.000  O
