data_image0
_cell_length_a       18.2359
_cell_length_b       18.2359
_cell_length_c       18.2359
_cell_angle_alpha    60
_cell_angle_beta     60
_cell_angle_gamma    60

loop_
  _atom_site_label
  _atom_site_occupancy
  _atom_site_fract_x
  _atom_site_fract_y
  _atom_site_fract_z
  _atom_site_thermal_displace_type
  _atom_site_B_iso_or_equiv
  _atom_site_type_symbol
  Zn1      1.0000 0.29356  0.29357  0.11930  Biso   1.000  Zn
  Zn2      1.0000 0.29356  0.29357  0.29357  Biso   1.000  Zn
  Zn3      1.0000 0.11929  0.29357  0.29357  Biso   1.000  Zn
  Zn4      1.0000 0.29356  0.11930  0.29357  Biso   1.000  Zn
  Zn5      1.0000 0.70644  0.70643  0.88070  Biso   1.000  Zn
  Zn6      1.0000 0.70644  0.70643  0.70643  Biso   1.000  Zn
  Zn7      1.0000 0.70644  0.88070  0.70643  Biso   1.000  Zn
  Zn8      1.0000 0.88071  0.70643  0.70643  Biso   1.000  Zn
  H1       1.0000 0.45600  0.45600  0.93640  Biso   1.000  H
  H2       1.0000 0.45600  0.45600  0.15160  Biso   1.000  H
  H3       1.0000 0.93640  0.15160  0.45600  Biso   1.000  H
  H4       1.0000 0.15160  0.93640  0.45600  Biso   1.000  H
  H5       1.0000 0.45600  0.93640  0.15160  Biso   1.000  H
  H6       1.0000 0.45600  0.15160  0.93640  Biso   1.000  H
  H7       1.0000 0.93640  0.45600  0.45600  Biso   1.000  H
  H8       1.0000 0.15160  0.45600  0.45600  Biso   1.000  H
  H9       1.0000 0.45600  0.15160  0.45600  Biso   1.000  H
  H10      1.0000 0.45600  0.93640  0.45600  Biso   1.000  H
  H11      1.0000 0.93640  0.45600  0.15160  Biso   1.000  H
  H12      1.0000 0.15160  0.45600  0.93640  Biso   1.000  H
  H13      1.0000 0.54400  0.54400  0.06360  Biso   1.000  H
  H14      1.0000 0.54400  0.54400  0.84840  Biso   1.000  H
  H15      1.0000 0.84840  0.06360  0.54400  Biso   1.000  H
  H16      1.0000 0.06360  0.84840  0.54400  Biso   1.000  H
  H17      1.0000 0.06360  0.54400  0.84840  Biso   1.000  H
  H18      1.0000 0.84840  0.54400  0.06360  Biso   1.000  H
  H19      1.0000 0.54400  0.06360  0.54400  Biso   1.000  H
  H20      1.0000 0.54400  0.84840  0.54400  Biso   1.000  H
  H21      1.0000 0.84840  0.54400  0.54400  Biso   1.000  H
  H22      1.0000 0.06360  0.54400  0.54400  Biso   1.000  H
  H23      1.0000 0.54400  0.06360  0.84840  Biso   1.000  H
  H24      1.0000 0.54400  0.84840  0.06360  Biso   1.000  H
  C1       1.0000 0.47360  0.47360  0.96320  Biso   1.000  C
  C2       1.0000 0.47360  0.47360  0.08960  Biso   1.000  C
  C3       1.0000 0.96320  0.08960  0.47360  Biso   1.000  C
  C4       1.0000 0.08960  0.96320  0.47360  Biso   1.000  C
  C5       1.0000 0.47360  0.96320  0.08960  Biso   1.000  C
  C6       1.0000 0.47360  0.08960  0.96320  Biso   1.000  C
  C7       1.0000 0.96320  0.47360  0.47360  Biso   1.000  C
  C8       1.0000 0.08960  0.47360  0.47360  Biso   1.000  C
  C9       1.0000 0.47360  0.08960  0.47360  Biso   1.000  C
  C10      1.0000 0.47360  0.96320  0.47360  Biso   1.000  C
  C11      1.0000 0.96320  0.47360  0.08960  Biso   1.000  C
  C12      1.0000 0.08960  0.47360  0.96320  Biso   1.000  C
  C13      1.0000 0.52640  0.52640  0.03680  Biso   1.000  C
  C14      1.0000 0.52640  0.52640  0.91040  Biso   1.000  C
  C15      1.0000 0.91040  0.03680  0.52640  Biso   1.000  C
  C16      1.0000 0.03680  0.91040  0.52640  Biso   1.000  C
  C17      1.0000 0.03680  0.52640  0.91040  Biso   1.000  C
  C18      1.0000 0.91040  0.52640  0.03680  Biso   1.000  C
  C19      1.0000 0.52640  0.03680  0.52640  Biso   1.000  C
  C20      1.0000 0.52640  0.91040  0.52640  Biso   1.000  C
  C21      1.0000 0.91040  0.52640  0.52640  Biso   1.000  C
  C22      1.0000 0.03680  0.52640  0.52640  Biso   1.000  C
  C23      1.0000 0.52640  0.03680  0.91040  Biso   1.000  C
  C24      1.0000 0.52640  0.91040  0.03680  Biso   1.000  C
  C25      1.0000 0.38860  0.38860  0.11140  Biso   1.000  C
  C26      1.0000 0.44630  0.44630  0.05370  Biso   1.000  C
  C27      1.0000 0.11140  0.11140  0.38860  Biso   1.000  C
  C28      1.0000 0.05370  0.05370  0.44630  Biso   1.000  C
  C29      1.0000 0.38860  0.11140  0.11140  Biso   1.000  C
  C30      1.0000 0.44630  0.05370  0.05370  Biso   1.000  C
  C31      1.0000 0.11140  0.38860  0.38860  Biso   1.000  C
  C32      1.0000 0.05370  0.44630  0.44630  Biso   1.000  C
  C33      1.0000 0.38860  0.11140  0.38860  Biso   1.000  C
  C34      1.0000 0.44630  0.05370  0.44630  Biso   1.000  C
  C35      1.0000 0.11140  0.38860  0.11140  Biso   1.000  C
  C36      1.0000 0.05370  0.44630  0.05370  Biso   1.000  C
  C37      1.0000 0.61140  0.61140  0.88860  Biso   1.000  C
  C38      1.0000 0.55370  0.55370  0.94630  Biso   1.000  C
  C39      1.0000 0.88860  0.88860  0.61140  Biso   1.000  C
  C40      1.0000 0.94630  0.94630  0.55370  Biso   1.000  C
  C41      1.0000 0.88860  0.61140  0.88860  Biso   1.000  C
  C42      1.0000 0.94630  0.55370  0.94630  Biso   1.000  C
  C43      1.0000 0.61140  0.88860  0.61140  Biso   1.000  C
  C44      1.0000 0.55370  0.94630  0.55370  Biso   1.000  C
  C45      1.0000 0.88860  0.61140  0.61140  Biso   1.000  C
  C46      1.0000 0.94630  0.55370  0.55370  Biso   1.000  C
  C47      1.0000 0.61140  0.88860  0.88860  Biso   1.000  C
  C48      1.0000 0.55370  0.94630  0.94630  Biso   1.000  C
  O1       1.0000 0.25000  0.25000  0.25000  Biso   1.000  O
  O2       1.0000 0.75000  0.75000  0.75000  Biso   1.000  O
  O3       1.0000 0.36605  0.36605  0.07323  Biso   1.000  O
  O4       1.0000 0.36605  0.36605  0.19467  Biso   1.000  O
  O5       1.0000 0.07323  0.19467  0.36605  Biso   1.000  O
  O6       1.0000 0.19467  0.07323  0.36605  Biso   1.000  O
  O7       1.0000 0.36605  0.07323  0.19467  Biso   1.000  O
  O8       1.0000 0.36605  0.19467  0.07323  Biso   1.000  O
  O9       1.0000 0.07323  0.36605  0.36605  Biso   1.000  O
  O10      1.0000 0.19467  0.36605  0.36605  Biso   1.000  O
  O11      1.0000 0.36605  0.19467  0.36605  Biso   1.000  O
  O12      1.0000 0.36605  0.07323  0.36605  Biso   1.000  O
  O13      1.0000 0.07323  0.36605  0.19467  Biso   1.000  O
  O14      1.0000 0.19467  0.36605  0.07323  Biso   1.000  O
  O15      1.0000 0.63395  0.63395  0.92677  Biso   1.000  O
  O16      1.0000 0.63395  0.63395  0.80533  Biso   1.000  O
  O17      1.0000 0.80533  0.92677  0.63395  Biso   1.000  O
  O18      1.0000 0.92677  0.80533  0.63395  Biso   1.000  O
  O19      1.0000 0.92677  0.63395  0.80533  Biso   1.000  O
  O20      1.0000 0.80533  0.63395  0.92677  Biso   1.000  O
  O21      1.0000 0.63395  0.92677  0.63395  Biso   1.000  O
  O22      1.0000 0.63395  0.80533  0.63395  Biso   1.000  O
  O23      1.0000 0.80533  0.63395  0.63395  Biso   1.000  O
  O24      1.0000 0.92677  0.63395  0.63395  Biso   1.000  O
  O25      1.0000 0.63395  0.92677  0.80533  Biso   1.000  O
  O26      1.0000 0.63395  0.80533  0.92677  Biso   1.000  O
  Zn9      1.0000 0.92410  0.92302  0.06684  Biso   1.000  Zn
  Zn10     1.0000 0.09576  0.92298  0.89518  Biso   1.000  Zn
  Zn11     1.0000 0.09581  0.75132  0.06684  Biso   1.000  Zn
  Zn12     1.0000 0.09576  0.92297  0.06689  Biso   1.000  Zn
  Zn13     1.0000 0.68631  0.33242  0.48574  Biso   1.000  Zn
  Zn14     1.0000 0.51465  0.33246  0.65740  Biso   1.000  Zn
  Zn15     1.0000 0.51460  0.50412  0.48574  Biso   1.000  Zn
  Zn16     1.0000 0.51465  0.33247  0.48569  Biso   1.000  Zn
  C49      1.0000 0.76658  0.10175  0.86783  Biso   1.000  C
  C50      1.0000 0.76558  0.72378  0.25424  Biso   1.000  C
  C51      1.0000 0.76677  0.10237  0.25325  Biso   1.000  C
  C52      1.0000 0.89675  0.10077  0.73767  Biso   1.000  C
  C53      1.0000 0.28316  0.10276  0.73667  Biso   1.000  C
  C54      1.0000 0.28217  0.72396  0.73786  Biso   1.000  C
  C55      1.0000 0.28394  0.58439  0.25403  Biso   1.000  C
  C56      1.0000 0.89653  0.58339  0.25602  Biso   1.000  C
  C57      1.0000 0.28455  0.58457  0.86782  Biso   1.000  C
  C58      1.0000 0.28295  0.72398  0.25502  Biso   1.000  C
  C59      1.0000 0.28494  0.10097  0.86762  Biso   1.000  C
  C60      1.0000 0.89673  0.09999  0.25563  Biso   1.000  C
  C61      1.0000 0.84383  0.15368  0.68475  Biso   1.000  C
  C62      1.0000 0.84483  0.53168  0.30773  Biso   1.000  C
  C63      1.0000 0.84364  0.15309  0.30872  Biso   1.000  C
  C64      1.0000 0.71366  0.15467  0.81491  Biso   1.000  C
  C65      1.0000 0.33665  0.15268  0.81591  Biso   1.000  C
  C66      1.0000 0.33764  0.53147  0.81473  Biso   1.000  C
  C67      1.0000 0.33587  0.66164  0.30794  Biso   1.000  C
  C68      1.0000 0.71387  0.66264  0.30595  Biso   1.000  C
  C69      1.0000 0.33526  0.66144  0.68476  Biso   1.000  C
  C70      1.0000 0.33686  0.53147  0.30695  Biso   1.000  C
  C71      1.0000 0.33487  0.15447  0.68496  Biso   1.000  C
  C72      1.0000 0.71367  0.15547  0.30635  Biso   1.000  C
  C73      1.0000 0.85850  0.07442  0.82959  Biso   1.000  C
  C74      1.0000 0.91663  0.01630  0.88771  Biso   1.000  C
  C75      1.0000 0.25661  0.68574  0.22769  Biso   1.000  C
  C76      1.0000 0.18908  0.74385  0.16017  Biso   1.000  C
  C77      1.0000 0.75191  0.18101  0.72300  Biso   1.000  C
  C78      1.0000 0.69378  0.23914  0.66487  Biso   1.000  C
  C79      1.0000 0.36320  0.56972  0.33428  Biso   1.000  C
  C80      1.0000 0.42133  0.51159  0.39241  Biso   1.000  C
  C81      1.0000 0.85830  0.07464  0.22789  Biso   1.000  C
  C82      1.0000 0.91616  0.01677  0.16065  Biso   1.000  C
  C83      1.0000 0.25681  0.67610  0.82939  Biso   1.000  C
  C84      1.0000 0.18956  0.74338  0.88724  Biso   1.000  C
  C85      1.0000 0.75211  0.18082  0.33408  Biso   1.000  C
  C86      1.0000 0.69426  0.23867  0.39194  Biso   1.000  C
  C87      1.0000 0.36300  0.56991  0.72319  Biso   1.000  C
  C88      1.0000 0.42085  0.51206  0.66534  Biso   1.000  C
  C89      1.0000 0.85810  0.67591  0.22809  Biso   1.000  C
  C90      1.0000 0.91596  0.74317  0.16084  Biso   1.000  C
  C91      1.0000 0.25701  0.07482  0.82919  Biso   1.000  C
  C92      1.0000 0.18976  0.01697  0.88704  Biso   1.000  C
  C93      1.0000 0.75230  0.57012  0.33389  Biso   1.000  C
  C94      1.0000 0.69445  0.51227  0.39174  Biso   1.000  C
  C95      1.0000 0.36280  0.18062  0.72339  Biso   1.000  C
  C96      1.0000 0.42065  0.23847  0.66554  Biso   1.000  C
  O27      1.0000 0.87637  0.99391  0.97116  Biso   1.000  O
  O28      1.0000 0.87687  0.99583  0.13778  Biso   1.000  O
  O29      1.0000 0.87602  0.82771  0.13814  Biso   1.000  O
  O30      1.0000 0.00008  0.99550  0.84746  Biso   1.000  O
  O31      1.0000 0.16669  0.82647  0.84795  Biso   1.000  O
  O32      1.0000 0.16705  0.99508  0.84710  Biso   1.000  O
  O33      1.0000 0.16670  0.70359  0.13937  Biso   1.000  O
  O34      1.0000 0.16862  0.70409  0.97033  Biso   1.000  O
  O35      1.0000 0.00049  0.70323  0.13895  Biso   1.000  O
  O36      1.0000 0.16828  0.82729  0.13778  Biso   1.000  O
  O37      1.0000 0.99925  0.99390  0.13970  Biso   1.000  O
  O38      1.0000 0.16786  0.99426  0.97158  Biso   1.000  O
  O39      1.0000 0.73404  0.26153  0.58142  Biso   1.000  O
  O40      1.0000 0.73354  0.25961  0.41480  Biso   1.000  O
  O41      1.0000 0.73439  0.42773  0.41444  Biso   1.000  O
  O42      1.0000 0.61033  0.25994  0.70513  Biso   1.000  O
  O43      1.0000 0.44372  0.42897  0.70463  Biso   1.000  O
  O44      1.0000 0.44336  0.26036  0.70548  Biso   1.000  O
  O45      1.0000 0.44371  0.55185  0.41321  Biso   1.000  O
  O46      1.0000 0.44179  0.55135  0.58225  Biso   1.000  O
  O47      1.0000 0.60992  0.55220  0.41363  Biso   1.000  O
  O48      1.0000 0.44213  0.42815  0.41480  Biso   1.000  O
  O49      1.0000 0.61116  0.26153  0.41288  Biso   1.000  O
  O50      1.0000 0.44255  0.26117  0.58100  Biso   1.000  O
  O51      1.0000 0.05286  0.88007  0.02394  Biso   1.000  O
  O52      1.0000 0.55755  0.37537  0.52864  Biso   1.000  O
  H25      1.0000 0.73370  0.79965  0.23151  Biso   1.000  H
  H26      1.0000 0.97241  0.55152  0.23476  Biso   1.000  H
  H27      1.0000 0.87670  0.45580  0.33047  Biso   1.000  H
  H28      1.0000 0.63799  0.70394  0.32722  Biso   1.000  H
  H29      1.0000 0.26354  0.55269  0.94369  Biso   1.000  H
  H30      1.0000 0.36063  0.45560  0.84660  Biso   1.000  H
  H31      1.0000 0.73489  0.08136  0.23027  Biso   1.000  H
  H32      1.0000 0.63780  0.17845  0.32736  Biso   1.000  H
  H33      1.0000 0.97263  0.07836  0.70578  Biso   1.000  H
  H34      1.0000 0.26043  0.08149  0.70479  Biso   1.000  H
  H35      1.0000 0.35926  0.45560  0.32854  Biso   1.000  H
  H36      1.0000 0.35614  0.17720  0.60908  Biso   1.000  H
  H37      1.0000 0.25919  0.79983  0.70598  Biso   1.000  H
  H38      1.0000 0.35627  0.70275  0.60889  Biso   1.000  H
  H39      1.0000 0.97260  0.07701  0.23462  Biso   1.000  H
  H40      1.0000 0.87551  0.17410  0.33171  Biso   1.000  H
  H41      1.0000 0.35745  0.70295  0.33035  Biso   1.000  H
  H42      1.0000 0.26368  0.07824  0.94350  Biso   1.000  H
  H43      1.0000 0.35939  0.17395  0.84779  Biso   1.000  H
  H44      1.0000 0.26054  0.79986  0.23344  Biso   1.000  H
  H45      1.0000 0.63778  0.17708  0.84680  Biso   1.000  H
  H46      1.0000 0.73470  0.08017  0.94371  Biso   1.000  H
  H47      1.0000 0.87571  0.17527  0.60887  Biso   1.000  H
  H48      1.0000 0.26235  0.55251  0.23163  Biso   1.000  H
