data_image0
_cell_length_a       18.2507
_cell_length_b       18.2507
_cell_length_c       18.2507
_cell_angle_alpha    60
_cell_angle_beta     60
_cell_angle_gamma    60

loop_
  _atom_site_label
  _atom_site_occupancy
  _atom_site_fract_x
  _atom_site_fract_y
  _atom_site_fract_z
  _atom_site_thermal_displace_type
  _atom_site_B_iso_or_equiv
  _atom_site_type_symbol
  C1       1.0000 0.29354  0.29353  0.11940  Biso   1.000  C
  C2       1.0000 0.29354  0.29353  0.29353  Biso   1.000  C
  C3       1.0000 0.11941  0.29353  0.29353  Biso   1.000  C
  C4       1.0000 0.29354  0.11940  0.29353  Biso   1.000  C
  C5       1.0000 0.70646  0.70647  0.88060  Biso   1.000  C
  C6       1.0000 0.70646  0.70647  0.70647  Biso   1.000  C
  C7       1.0000 0.70646  0.88060  0.70647  Biso   1.000  C
  C8       1.0000 0.88059  0.70647  0.70647  Biso   1.000  C
  C9       1.0000 0.45580  0.45580  0.93620  Biso   1.000  C
  C10      1.0000 0.45580  0.45580  0.15220  Biso   1.000  C
  C11      1.0000 0.93620  0.15220  0.45580  Biso   1.000  C
  C12      1.0000 0.15220  0.93620  0.45580  Biso   1.000  C
  C13      1.0000 0.45580  0.93620  0.15220  Biso   1.000  C
  C14      1.0000 0.45580  0.15220  0.93620  Biso   1.000  C
  C15      1.0000 0.93620  0.45580  0.45580  Biso   1.000  C
  C16      1.0000 0.15220  0.45580  0.45580  Biso   1.000  C
  C17      1.0000 0.45580  0.15220  0.45580  Biso   1.000  C
  C18      1.0000 0.45580  0.93620  0.45580  Biso   1.000  C
  C19      1.0000 0.93620  0.45580  0.15220  Biso   1.000  C
  C20      1.0000 0.15220  0.45580  0.93620  Biso   1.000  C
  C21      1.0000 0.54420  0.54420  0.06380  Biso   1.000  C
  C22      1.0000 0.54420  0.54420  0.84780  Biso   1.000  C
  C23      1.0000 0.84780  0.06380  0.54420  Biso   1.000  C
  C24      1.0000 0.06380  0.84780  0.54420  Biso   1.000  C
  C25      1.0000 0.06380  0.54420  0.84780  Biso   1.000  C
  C26      1.0000 0.84780  0.54420  0.06380  Biso   1.000  C
  C27      1.0000 0.54420  0.06380  0.54420  Biso   1.000  C
  C28      1.0000 0.54420  0.84780  0.54420  Biso   1.000  C
  C29      1.0000 0.84780  0.54420  0.54420  Biso   1.000  C
  C30      1.0000 0.06380  0.54420  0.54420  Biso   1.000  C
  C31      1.0000 0.54420  0.06380  0.84780  Biso   1.000  C
  C32      1.0000 0.54420  0.84780  0.06380  Biso   1.000  C
  C33      1.0000 0.47349  0.47349  0.96297  Biso   1.000  C
  C34      1.0000 0.47349  0.47349  0.09005  Biso   1.000  C
  C35      1.0000 0.96297  0.09005  0.47349  Biso   1.000  C
  C36      1.0000 0.09005  0.96297  0.47349  Biso   1.000  C
  C37      1.0000 0.47349  0.96297  0.09005  Biso   1.000  C
  C38      1.0000 0.47349  0.09005  0.96297  Biso   1.000  C
  C39      1.0000 0.96297  0.47349  0.47349  Biso   1.000  C
  C40      1.0000 0.09005  0.47349  0.47349  Biso   1.000  C
  C41      1.0000 0.47349  0.09005  0.47349  Biso   1.000  C
  C42      1.0000 0.47349  0.96297  0.47349  Biso   1.000  C
  C43      1.0000 0.96297  0.47349  0.09005  Biso   1.000  C
  C44      1.0000 0.09005  0.47349  0.96297  Biso   1.000  C
  C45      1.0000 0.52651  0.52651  0.03703  Biso   1.000  C
  C46      1.0000 0.52651  0.52651  0.90995  Biso   1.000  C
  C47      1.0000 0.90995  0.03703  0.52651  Biso   1.000  C
  C48      1.0000 0.03703  0.90995  0.52651  Biso   1.000  C
  C49      1.0000 0.03703  0.52651  0.90995  Biso   1.000  C
  C50      1.0000 0.90995  0.52651  0.03703  Biso   1.000  C
  C51      1.0000 0.52651  0.03703  0.52651  Biso   1.000  C
  C52      1.0000 0.52651  0.90995  0.52651  Biso   1.000  C
  C53      1.0000 0.90995  0.52651  0.52651  Biso   1.000  C
  C54      1.0000 0.03703  0.52651  0.52651  Biso   1.000  C
  C55      1.0000 0.52651  0.03703  0.90995  Biso   1.000  C
  C56      1.0000 0.52651  0.90995  0.03703  Biso   1.000  C
  C57      1.0000 0.38859  0.38859  0.11141  Biso   1.000  C
  C58      1.0000 0.44630  0.44630  0.05370  Biso   1.000  C
  C59      1.0000 0.11141  0.11141  0.38859  Biso   1.000  C
  C60      1.0000 0.05370  0.05370  0.44630  Biso   1.000  C
  C61      1.0000 0.38859  0.11141  0.11141  Biso   1.000  C
  C62      1.0000 0.44630  0.05370  0.05370  Biso   1.000  C
  C63      1.0000 0.11141  0.38859  0.38859  Biso   1.000  C
  C64      1.0000 0.05370  0.44630  0.44630  Biso   1.000  C
  C65      1.0000 0.38859  0.11141  0.38859  Biso   1.000  C
  C66      1.0000 0.44630  0.05370  0.44630  Biso   1.000  C
  C67      1.0000 0.11141  0.38859  0.11141  Biso   1.000  C
  C68      1.0000 0.05370  0.44630  0.05370  Biso   1.000  C
  C69      1.0000 0.61141  0.61141  0.88859  Biso   1.000  C
  C70      1.0000 0.55370  0.55370  0.94630  Biso   1.000  C
  C71      1.0000 0.88859  0.88859  0.61141  Biso   1.000  C
  C72      1.0000 0.94630  0.94630  0.55370  Biso   1.000  C
  C73      1.0000 0.88859  0.61141  0.88859  Biso   1.000  C
  C74      1.0000 0.94630  0.55370  0.94630  Biso   1.000  C
  C75      1.0000 0.61141  0.88859  0.61141  Biso   1.000  C
  C76      1.0000 0.55370  0.94630  0.55370  Biso   1.000  C
  C77      1.0000 0.88859  0.61141  0.61141  Biso   1.000  C
  C78      1.0000 0.94630  0.55370  0.55370  Biso   1.000  C
  C79      1.0000 0.61141  0.88859  0.88859  Biso   1.000  C
  C80      1.0000 0.55370  0.94630  0.94630  Biso   1.000  C
  C81      1.0000 0.25000  0.25000  0.25000  Biso   1.000  C
  C82      1.0000 0.75000  0.75000  0.75000  Biso   1.000  C
  C83      1.0000 0.36605  0.36605  0.07321  Biso   1.000  C
  C84      1.0000 0.36605  0.36605  0.19469  Biso   1.000  C
  C85      1.0000 0.07321  0.19469  0.36605  Biso   1.000  C
  C86      1.0000 0.19469  0.07321  0.36605  Biso   1.000  C
  C87      1.0000 0.36605  0.07321  0.19469  Biso   1.000  C
  C88      1.0000 0.36605  0.19469  0.07321  Biso   1.000  C
  C89      1.0000 0.07321  0.36605  0.36605  Biso   1.000  C
  C90      1.0000 0.19469  0.36605  0.36605  Biso   1.000  C
  C91      1.0000 0.36605  0.19469  0.36605  Biso   1.000  C
  C92      1.0000 0.36605  0.07321  0.36605  Biso   1.000  C
  C93      1.0000 0.07321  0.36605  0.19469  Biso   1.000  C
  C94      1.0000 0.19469  0.36605  0.07321  Biso   1.000  C
  C95      1.0000 0.63395  0.63395  0.92679  Biso   1.000  C
  C96      1.0000 0.63395  0.63395  0.80531  Biso   1.000  C
  C97      1.0000 0.80531  0.92679  0.63395  Biso   1.000  C
  C98      1.0000 0.92679  0.80531  0.63395  Biso   1.000  C
  C99      1.0000 0.92679  0.63395  0.80531  Biso   1.000  C
  C100     1.0000 0.80531  0.63395  0.92679  Biso   1.000  C
  C101     1.0000 0.63395  0.92679  0.63395  Biso   1.000  C
  C102     1.0000 0.63395  0.80531  0.63395  Biso   1.000  C
  C103     1.0000 0.80531  0.63395  0.63395  Biso   1.000  C
  C104     1.0000 0.92679  0.63395  0.63395  Biso   1.000  C
  C105     1.0000 0.63395  0.92679  0.80531  Biso   1.000  C
  C106     1.0000 0.63395  0.80531  0.92679  Biso   1.000  C
  O1       1.0000 0.92260  0.92152  0.06674  Biso   1.000  O
  O2       1.0000 0.09398  0.92148  0.89535  Biso   1.000  O
  O3       1.0000 0.09403  0.75010  0.06674  Biso   1.000  O
  O4       1.0000 0.09398  0.92148  0.06679  Biso   1.000  O
  O5       1.0000 0.68520  0.33026  0.48657  Biso   1.000  O
  O6       1.0000 0.51382  0.33030  0.65795  Biso   1.000  O
  O7       1.0000 0.51377  0.50168  0.48657  Biso   1.000  O
  O8       1.0000 0.51382  0.33031  0.48652  Biso   1.000  O
  O9       1.0000 0.76534  0.09997  0.86805  Biso   1.000  O
  O10      1.0000 0.76434  0.72260  0.25545  Biso   1.000  O
  O11      1.0000 0.76552  0.10058  0.25446  Biso   1.000  O
  O12      1.0000 0.89529  0.09898  0.73809  Biso   1.000  O
  O13      1.0000 0.28270  0.10097  0.73709  Biso   1.000  O
  O14      1.0000 0.28171  0.72279  0.73828  Biso   1.000  O
  O15      1.0000 0.28348  0.58182  0.25524  Biso   1.000  O
  O16      1.0000 0.89508  0.58082  0.25723  Biso   1.000  O
  O17      1.0000 0.28409  0.58200  0.86804  Biso   1.000  O
  O18      1.0000 0.28249  0.72281  0.25623  Biso   1.000  O
  O19      1.0000 0.28448  0.09919  0.86784  Biso   1.000  O
  O20      1.0000 0.89528  0.09821  0.25684  Biso   1.000  O
  O21      1.0000 0.84246  0.15181  0.68526  Biso   1.000  O
  O22      1.0000 0.84346  0.52920  0.30886  Biso   1.000  O
  O23      1.0000 0.84227  0.15122  0.30985  Biso   1.000  O
  O24      1.0000 0.71251  0.15280  0.81521  Biso   1.000  O
  O25      1.0000 0.33611  0.15081  0.81621  Biso   1.000  O
  O26      1.0000 0.33710  0.52899  0.81503  Biso   1.000  O
  O27      1.0000 0.33532  0.65894  0.30906  Biso   1.000  O
  O28      1.0000 0.71271  0.65994  0.30708  Biso   1.000  O
  O29      1.0000 0.33472  0.65875  0.68527  Biso   1.000  O
  O30      1.0000 0.33631  0.52899  0.30808  Biso   1.000  O
  O31      1.0000 0.33433  0.15259  0.68547  Biso   1.000  O
  O32      1.0000 0.71251  0.15359  0.30747  Biso   1.000  O
  O33      1.0000 0.85711  0.07268  0.82986  Biso   1.000  O
  O34      1.0000 0.91514  0.01465  0.88790  Biso   1.000  O
  O35      1.0000 0.25619  0.68463  0.22895  Biso   1.000  O
  O36      1.0000 0.18716  0.74264  0.15991  Biso   1.000  O
  O37      1.0000 0.75069  0.17910  0.72345  Biso   1.000  O
  O38      1.0000 0.69266  0.23713  0.66541  Biso   1.000  O
  O39      1.0000 0.36261  0.56718  0.33536  Biso   1.000  O
  O40      1.0000 0.42064  0.50914  0.39340  Biso   1.000  O
  O41      1.0000 0.85691  0.07289  0.22914  Biso   1.000  O
  O42      1.0000 0.91467  0.01512  0.16038  Biso   1.000  O
  O43      1.0000 0.25639  0.67338  0.82966  Biso   1.000  O
  O44      1.0000 0.18763  0.74217  0.88742  Biso   1.000  O
  O45      1.0000 0.75089  0.17891  0.33516  Biso   1.000  O
  O46      1.0000 0.69313  0.23666  0.39292  Biso   1.000  O
  O47      1.0000 0.36241  0.56736  0.72364  Biso   1.000  O
  O48      1.0000 0.42017  0.50961  0.66589  Biso   1.000  O
  O49      1.0000 0.85671  0.67319  0.22934  Biso   1.000  O
  O50      1.0000 0.91447  0.74197  0.16058  Biso   1.000  O
  O51      1.0000 0.25659  0.07308  0.82947  Biso   1.000  O
  O52      1.0000 0.18783  0.01532  0.88722  Biso   1.000  O
  O53      1.0000 0.75108  0.56757  0.33497  Biso   1.000  O
  O54      1.0000 0.69333  0.50981  0.39272  Biso   1.000  O
  O55      1.0000 0.36222  0.17870  0.72384  Biso   1.000  O
  O56      1.0000 0.41997  0.23646  0.66608  Biso   1.000  O
  O57      1.0000 0.87495  0.99230  0.97121  Biso   1.000  O
  O58      1.0000 0.87545  0.99421  0.13756  Biso   1.000  O
  O59      1.0000 0.87460  0.82637  0.13791  Biso   1.000  O
  O60      1.0000 0.99845  0.99388  0.84770  Biso   1.000  O
  O61      1.0000 0.16480  0.82513  0.84820  Biso   1.000  O
  O62      1.0000 0.16516  0.99347  0.84735  Biso   1.000  O
  O63      1.0000 0.16481  0.70245  0.13914  Biso   1.000  O
  O64      1.0000 0.16672  0.70295  0.97038  Biso   1.000  O
  O65      1.0000 0.99887  0.70209  0.13873  Biso   1.000  O
  O66      1.0000 0.16639  0.82595  0.13756  Biso   1.000  O
  O67      1.0000 0.99763  0.99229  0.13948  Biso   1.000  O
  O68      1.0000 0.16597  0.99265  0.97162  Biso   1.000  O
  O69      1.0000 0.73285  0.25948  0.58210  Biso   1.000  O
  O70      1.0000 0.73235  0.25757  0.41575  Biso   1.000  O
  O71      1.0000 0.73320  0.42542  0.41539  Biso   1.000  O
  O72      1.0000 0.60934  0.25790  0.70560  Biso   1.000  O
  O73      1.0000 0.44300  0.42666  0.70511  Biso   1.000  O
  O74      1.0000 0.44264  0.25831  0.70596  Biso   1.000  O
  O75      1.0000 0.44299  0.54933  0.41417  Biso   1.000  O
  O76      1.0000 0.44108  0.54883  0.58293  Biso   1.000  O
  O77      1.0000 0.60893  0.54969  0.41458  Biso   1.000  O
  O78      1.0000 0.44141  0.42583  0.41575  Biso   1.000  O
  O79      1.0000 0.61017  0.25949  0.41383  Biso   1.000  O
  O80      1.0000 0.44183  0.25913  0.58168  Biso   1.000  O
  O81      1.0000 0.05115  0.87864  0.02390  Biso   1.000  O
  O82      1.0000 0.55665  0.37314  0.52940  Biso   1.000  O
  O83      1.0000 0.73251  0.79836  0.23275  Biso   1.000  O
  O84      1.0000 0.97084  0.54900  0.23600  Biso   1.000  O
  O85      1.0000 0.87528  0.45344  0.33155  Biso   1.000  O
  O86      1.0000 0.63695  0.70280  0.32831  Biso   1.000  O
  O87      1.0000 0.26311  0.55017  0.94378  Biso   1.000  O
  O88      1.0000 0.36004  0.45325  0.84685  Biso   1.000  O
  O89      1.0000 0.73370  0.07961  0.23152  Biso   1.000  O
  O90      1.0000 0.63677  0.17654  0.32845  Biso   1.000  O
  O91      1.0000 0.97105  0.07661  0.70626  Biso   1.000  O
  O92      1.0000 0.26000  0.07974  0.70527  Biso   1.000  O
  O93      1.0000 0.35868  0.45324  0.32963  Biso   1.000  O
  O94      1.0000 0.35556  0.17529  0.60971  Biso   1.000  O
  O95      1.0000 0.25877  0.79854  0.70645  Biso   1.000  O
  O96      1.0000 0.35570  0.70161  0.60952  Biso   1.000  O
  O97      1.0000 0.97103  0.07527  0.23586  Biso   1.000  O
  O98      1.0000 0.87410  0.17219  0.33279  Biso   1.000  O
  O99      1.0000 0.35687  0.70181  0.33144  Biso   1.000  O
  O100     1.0000 0.26325  0.07649  0.94360  Biso   1.000  O
  O101     1.0000 0.35880  0.17204  0.84804  Biso   1.000  O
  O102     1.0000 0.26012  0.79857  0.23468  Biso   1.000  O
  O103     1.0000 0.63675  0.17517  0.84705  Biso   1.000  O
  O104     1.0000 0.73350  0.07842  0.94380  Biso   1.000  O
  O105     1.0000 0.87429  0.17336  0.60950  Biso   1.000  O
  O106     1.0000 0.26193  0.54999  0.23287  Biso   1.000  O
