data_image0
_cell_length_a       18.2455
_cell_length_b       18.2455
_cell_length_c       18.2455
_cell_angle_alpha    60
_cell_angle_beta     60
_cell_angle_gamma    60

loop_
  _atom_site_label
  _atom_site_occupancy
  _atom_site_fract_x
  _atom_site_fract_y
  _atom_site_fract_z
  _atom_site_thermal_displace_type
  _atom_site_B_iso_or_equiv
  _atom_site_type_symbol
  Zn1      1.0000 0.29354  0.29354  0.11938  Biso   1.000  Zn
  Zn2      1.0000 0.29354  0.29354  0.29354  Biso   1.000  Zn
  Zn3      1.0000 0.11938  0.29354  0.29354  Biso   1.000  Zn
  Zn4      1.0000 0.29354  0.11938  0.29354  Biso   1.000  Zn
  Zn5      1.0000 0.70646  0.70646  0.88062  Biso   1.000  Zn
  Zn6      1.0000 0.70646  0.70646  0.70646  Biso   1.000  Zn
  Zn7      1.0000 0.70646  0.88062  0.70646  Biso   1.000  Zn
  Zn8      1.0000 0.88062  0.70646  0.70646  Biso   1.000  Zn
  H1       1.0000 0.45580  0.45580  0.93620  Biso   1.000  H
  H2       1.0000 0.45580  0.45580  0.15220  Biso   1.000  H
  H3       1.0000 0.93620  0.15220  0.45580  Biso   1.000  H
  H4       1.0000 0.15220  0.93620  0.45580  Biso   1.000  H
  H5       1.0000 0.45580  0.93620  0.15220  Biso   1.000  H
  H6       1.0000 0.45580  0.15220  0.93620  Biso   1.000  H
  H7       1.0000 0.93620  0.45580  0.45580  Biso   1.000  H
  H8       1.0000 0.15220  0.45580  0.45580  Biso   1.000  H
  H9       1.0000 0.45580  0.15220  0.45580  Biso   1.000  H
  H10      1.0000 0.45580  0.93620  0.45580  Biso   1.000  H
  H11      1.0000 0.93620  0.45580  0.15220  Biso   1.000  H
  H12      1.0000 0.15220  0.45580  0.93620  Biso   1.000  H
  H13      1.0000 0.54420  0.54420  0.06380  Biso   1.000  H
  H14      1.0000 0.54420  0.54420  0.84780  Biso   1.000  H
  H15      1.0000 0.84780  0.06380  0.54420  Biso   1.000  H
  H16      1.0000 0.06380  0.84780  0.54420  Biso   1.000  H
  H17      1.0000 0.06380  0.54420  0.84780  Biso   1.000  H
  H18      1.0000 0.84780  0.54420  0.06380  Biso   1.000  H
  H19      1.0000 0.54420  0.06380  0.54420  Biso   1.000  H
  H20      1.0000 0.54420  0.84780  0.54420  Biso   1.000  H
  H21      1.0000 0.84780  0.54420  0.54420  Biso   1.000  H
  H22      1.0000 0.06380  0.54420  0.54420  Biso   1.000  H
  H23      1.0000 0.54420  0.06380  0.84780  Biso   1.000  H
  H24      1.0000 0.54420  0.84780  0.06380  Biso   1.000  H
  C1       1.0000 0.47345  0.47345  0.96303  Biso   1.000  C
  C2       1.0000 0.47345  0.47345  0.09007  Biso   1.000  C
  C3       1.0000 0.96303  0.09007  0.47345  Biso   1.000  C
  C4       1.0000 0.09007  0.96303  0.47345  Biso   1.000  C
  C5       1.0000 0.47345  0.96303  0.09007  Biso   1.000  C
  C6       1.0000 0.47345  0.09007  0.96303  Biso   1.000  C
  C7       1.0000 0.96303  0.47345  0.47345  Biso   1.000  C
  C8       1.0000 0.09007  0.47345  0.47345  Biso   1.000  C
  C9       1.0000 0.47345  0.09007  0.47345  Biso   1.000  C
  C10      1.0000 0.47345  0.96303  0.47345  Biso   1.000  C
  C11      1.0000 0.96303  0.47345  0.09007  Biso   1.000  C
  C12      1.0000 0.09007  0.47345  0.96303  Biso   1.000  C
  C13      1.0000 0.52655  0.52655  0.03697  Biso   1.000  C
  C14      1.0000 0.52655  0.52655  0.90993  Biso   1.000  C
  C15      1.0000 0.90993  0.03697  0.52655  Biso   1.000  C
  C16      1.0000 0.03697  0.90993  0.52655  Biso   1.000  C
  C17      1.0000 0.03697  0.52655  0.90993  Biso   1.000  C
  C18      1.0000 0.90993  0.52655  0.03697  Biso   1.000  C
  C19      1.0000 0.52655  0.03697  0.52655  Biso   1.000  C
  C20      1.0000 0.52655  0.90993  0.52655  Biso   1.000  C
  C21      1.0000 0.90993  0.52655  0.52655  Biso   1.000  C
  C22      1.0000 0.03697  0.52655  0.52655  Biso   1.000  C
  C23      1.0000 0.52655  0.03697  0.90993  Biso   1.000  C
  C24      1.0000 0.52655  0.90993  0.03697  Biso   1.000  C
  C25      1.0000 0.38857  0.38857  0.11143  Biso   1.000  C
  C26      1.0000 0.44620  0.44620  0.05380  Biso   1.000  C
  C27      1.0000 0.11143  0.11143  0.38857  Biso   1.000  C
  C28      1.0000 0.05380  0.05380  0.44620  Biso   1.000  C
  C29      1.0000 0.38857  0.11143  0.11143  Biso   1.000  C
  C30      1.0000 0.44620  0.05380  0.05380  Biso   1.000  C
  C31      1.0000 0.11143  0.38857  0.38857  Biso   1.000  C
  C32      1.0000 0.05380  0.44620  0.44620  Biso   1.000  C
  C33      1.0000 0.38857  0.11143  0.38857  Biso   1.000  C
  C34      1.0000 0.44620  0.05380  0.44620  Biso   1.000  C
  C35      1.0000 0.11143  0.38857  0.11143  Biso   1.000  C
  C36      1.0000 0.05380  0.44620  0.05380  Biso   1.000  C
  C37      1.0000 0.61143  0.61143  0.88857  Biso   1.000  C
  C38      1.0000 0.55380  0.55380  0.94620  Biso   1.000  C
  C39      1.0000 0.88857  0.88857  0.61143  Biso   1.000  C
  C40      1.0000 0.94620  0.94620  0.55380  Biso   1.000  C
  C41      1.0000 0.88857  0.61143  0.88857  Biso   1.000  C
  C42      1.0000 0.94620  0.55380  0.94620  Biso   1.000  C
  C43      1.0000 0.61143  0.88857  0.61143  Biso   1.000  C
  C44      1.0000 0.55380  0.94620  0.55380  Biso   1.000  C
  C45      1.0000 0.88857  0.61143  0.61143  Biso   1.000  C
  C46      1.0000 0.94620  0.55380  0.55380  Biso   1.000  C
  C47      1.0000 0.61143  0.88857  0.88857  Biso   1.000  C
  C48      1.0000 0.55380  0.94620  0.94620  Biso   1.000  C
  O1       1.0000 0.25000  0.25000  0.25000  Biso   1.000  O
  O2       1.0000 0.75000  0.75000  0.75000  Biso   1.000  O
  O3       1.0000 0.36603  0.36603  0.07311  Biso   1.000  O
  O4       1.0000 0.36603  0.36603  0.19483  Biso   1.000  O
  O5       1.0000 0.07311  0.19483  0.36603  Biso   1.000  O
  O6       1.0000 0.19483  0.07311  0.36603  Biso   1.000  O
  O7       1.0000 0.36603  0.07311  0.19483  Biso   1.000  O
  O8       1.0000 0.36603  0.19483  0.07311  Biso   1.000  O
  O9       1.0000 0.07311  0.36603  0.36603  Biso   1.000  O
  O10      1.0000 0.19483  0.36603  0.36603  Biso   1.000  O
  O11      1.0000 0.36603  0.19483  0.36603  Biso   1.000  O
  O12      1.0000 0.36603  0.07311  0.36603  Biso   1.000  O
  O13      1.0000 0.07311  0.36603  0.19483  Biso   1.000  O
  O14      1.0000 0.19483  0.36603  0.07311  Biso   1.000  O
  O15      1.0000 0.63397  0.63397  0.92689  Biso   1.000  O
  O16      1.0000 0.63397  0.63397  0.80517  Biso   1.000  O
  O17      1.0000 0.80517  0.92689  0.63397  Biso   1.000  O
  O18      1.0000 0.92689  0.80517  0.63397  Biso   1.000  O
  O19      1.0000 0.92689  0.63397  0.80517  Biso   1.000  O
  O20      1.0000 0.80517  0.63397  0.92689  Biso   1.000  O
  O21      1.0000 0.63397  0.92689  0.63397  Biso   1.000  O
  O22      1.0000 0.63397  0.80517  0.63397  Biso   1.000  O
  O23      1.0000 0.80517  0.63397  0.63397  Biso   1.000  O
  O24      1.0000 0.92689  0.63397  0.63397  Biso   1.000  O
  O25      1.0000 0.63397  0.92689  0.80517  Biso   1.000  O
  O26      1.0000 0.63397  0.80517  0.92689  Biso   1.000  O
  Zn9      1.0000 0.92313  0.92205  0.06677  Biso   1.000  Zn
  Zn10     1.0000 0.09461  0.92200  0.89529  Biso   1.000  Zn
  Zn11     1.0000 0.09466  0.75053  0.06677  Biso   1.000  Zn
  Zn12     1.0000 0.09461  0.92200  0.06682  Biso   1.000  Zn
  Zn13     1.0000 0.68559  0.33101  0.48628  Biso   1.000  Zn
  Zn14     1.0000 0.51411  0.33106  0.65776  Biso   1.000  Zn
  Zn15     1.0000 0.51406  0.50254  0.48628  Biso   1.000  Zn
  Zn16     1.0000 0.51411  0.33106  0.48623  Biso   1.000  Zn
  C49      1.0000 0.76578  0.10059  0.86797  Biso   1.000  C
  C50      1.0000 0.76477  0.72302  0.25503  Biso   1.000  C
  C51      1.0000 0.76596  0.10121  0.25404  Biso   1.000  C
  C52      1.0000 0.89580  0.09961  0.73794  Biso   1.000  C
  C53      1.0000 0.28286  0.10160  0.73694  Biso   1.000  C
  C54      1.0000 0.28187  0.72320  0.73813  Biso   1.000  C
  C55      1.0000 0.28364  0.58273  0.25482  Biso   1.000  C
  C56      1.0000 0.89559  0.58173  0.25681  Biso   1.000  C
  C57      1.0000 0.28425  0.58290  0.86796  Biso   1.000  C
  C58      1.0000 0.28265  0.72322  0.25581  Biso   1.000  C
  C59      1.0000 0.28464  0.09981  0.86776  Biso   1.000  C
  C60      1.0000 0.89579  0.09884  0.25641  Biso   1.000  C
  C61      1.0000 0.84294  0.15247  0.68508  Biso   1.000  C
  C62      1.0000 0.84394  0.53007  0.30846  Biso   1.000  C
  C63      1.0000 0.84275  0.15187  0.30945  Biso   1.000  C
  C64      1.0000 0.71291  0.15346  0.81511  Biso   1.000  C
  C65      1.0000 0.33630  0.15147  0.81611  Biso   1.000  C
  C66      1.0000 0.33729  0.52986  0.81492  Biso   1.000  C
  C67      1.0000 0.33551  0.65989  0.30867  Biso   1.000  C
  C68      1.0000 0.71312  0.66089  0.30668  Biso   1.000  C
  C69      1.0000 0.33491  0.65969  0.68509  Biso   1.000  C
  C70      1.0000 0.33650  0.52986  0.30768  Biso   1.000  C
  C71      1.0000 0.33452  0.15325  0.68529  Biso   1.000  C
  C72      1.0000 0.71292  0.15425  0.30708  Biso   1.000  C
  C73      1.0000 0.85760  0.07329  0.82976  Biso   1.000  C
  C74      1.0000 0.91566  0.01523  0.88783  Biso   1.000  C
  C75      1.0000 0.25634  0.68502  0.22851  Biso   1.000  C
  C76      1.0000 0.18783  0.74306  0.16000  Biso   1.000  C
  C77      1.0000 0.75112  0.17977  0.72329  Biso   1.000  C
  C78      1.0000 0.69305  0.23784  0.66522  Biso   1.000  C
  C79      1.0000 0.36282  0.56807  0.33498  Biso   1.000  C
  C80      1.0000 0.42088  0.51000  0.39305  Biso   1.000  C
  C81      1.0000 0.85739  0.07351  0.22870  Biso   1.000  C
  C82      1.0000 0.91519  0.01570  0.16048  Biso   1.000  C
  C83      1.0000 0.25654  0.67433  0.82957  Biso   1.000  C
  C84      1.0000 0.18831  0.74259  0.88736  Biso   1.000  C
  C85      1.0000 0.75131  0.17958  0.33478  Biso   1.000  C
  C86      1.0000 0.69353  0.23737  0.39258  Biso   1.000  C
  C87      1.0000 0.36262  0.56826  0.72349  Biso   1.000  C
  C88      1.0000 0.42041  0.51047  0.66569  Biso   1.000  C
  C89      1.0000 0.85720  0.67415  0.22890  Biso   1.000  C
  C90      1.0000 0.91499  0.74239  0.16067  Biso   1.000  C
  C91      1.0000 0.25674  0.07369  0.82937  Biso   1.000  C
  C92      1.0000 0.18850  0.01590  0.88716  Biso   1.000  C
  C93      1.0000 0.75151  0.56846  0.33459  Biso   1.000  C
  C94      1.0000 0.69372  0.51067  0.39238  Biso   1.000  C
  C95      1.0000 0.36242  0.17937  0.72368  Biso   1.000  C
  C96      1.0000 0.42021  0.23716  0.66589  Biso   1.000  C
  O27      1.0000 0.87545  0.99286  0.97119  Biso   1.000  O
  O28      1.0000 0.87595  0.99478  0.13764  Biso   1.000  O
  O29      1.0000 0.87509  0.82684  0.13799  Biso   1.000  O
  O30      1.0000 0.99902  0.99445  0.84762  Biso   1.000  O
  O31      1.0000 0.16547  0.82560  0.84811  Biso   1.000  O
  O32      1.0000 0.16582  0.99403  0.84726  Biso   1.000  O
  O33      1.0000 0.16547  0.70285  0.13922  Biso   1.000  O
  O34      1.0000 0.16739  0.70335  0.97036  Biso   1.000  O
  O35      1.0000 0.99944  0.70249  0.13880  Biso   1.000  O
  O36      1.0000 0.16705  0.82642  0.13764  Biso   1.000  O
  O37      1.0000 0.99820  0.99286  0.13956  Biso   1.000  O
  O38      1.0000 0.16664  0.99322  0.97161  Biso   1.000  O
  O39      1.0000 0.73327  0.26020  0.58186  Biso   1.000  O
  O40      1.0000 0.73277  0.25829  0.41541  Biso   1.000  O
  O41      1.0000 0.73362  0.42623  0.41506  Biso   1.000  O
  O42      1.0000 0.60969  0.25862  0.70544  Biso   1.000  O
  O43      1.0000 0.44325  0.42747  0.70494  Biso   1.000  O
  O44      1.0000 0.44289  0.25903  0.70579  Biso   1.000  O
  O45      1.0000 0.44325  0.55022  0.41383  Biso   1.000  O
  O46      1.0000 0.44133  0.54972  0.58269  Biso   1.000  O
  O47      1.0000 0.60927  0.55057  0.41425  Biso   1.000  O
  O48      1.0000 0.44166  0.42664  0.41541  Biso   1.000  O
  O49      1.0000 0.61052  0.26021  0.41349  Biso   1.000  O
  O50      1.0000 0.44208  0.25985  0.58144  Biso   1.000  O
  O51      1.0000 0.05175  0.87915  0.02392  Biso   1.000  O
  O52      1.0000 0.55697  0.37392  0.52914  Biso   1.000  O
  H25      1.0000 0.73293  0.79881  0.23232  Biso   1.000  H
  H26      1.0000 0.97139  0.54988  0.23556  Biso   1.000  H
  H27      1.0000 0.87578  0.45427  0.33117  Biso   1.000  H
  H28      1.0000 0.63732  0.70320  0.32793  Biso   1.000  H
  H29      1.0000 0.26326  0.55105  0.94375  Biso   1.000  H
  H30      1.0000 0.36025  0.45407  0.84677  Biso   1.000  H
  H31      1.0000 0.73412  0.08022  0.23108  Biso   1.000  H
  H32      1.0000 0.63713  0.17721  0.32807  Biso   1.000  H
  H33      1.0000 0.97160  0.07723  0.70609  Biso   1.000  H
  H34      1.0000 0.26015  0.08035  0.70510  Biso   1.000  H
  H35      1.0000 0.35889  0.45407  0.32924  Biso   1.000  H
  H36      1.0000 0.35576  0.17596  0.60949  Biso   1.000  H
  H37      1.0000 0.25891  0.79899  0.70629  Biso   1.000  H
  H38      1.0000 0.35590  0.70201  0.60930  Biso   1.000  H
  H39      1.0000 0.97158  0.07588  0.23542  Biso   1.000  H
  H40      1.0000 0.87459  0.17286  0.33241  Biso   1.000  H
  H41      1.0000 0.35708  0.70221  0.33105  Biso   1.000  H
  H42      1.0000 0.26340  0.07710  0.94356  Biso   1.000  H
  H43      1.0000 0.35901  0.17271  0.84795  Biso   1.000  H
  H44      1.0000 0.26027  0.79902  0.23425  Biso   1.000  H
  H45      1.0000 0.63711  0.17584  0.84696  Biso   1.000  H
  H46      1.0000 0.73392  0.07903  0.94377  Biso   1.000  H
  H47      1.0000 0.87479  0.17403  0.60928  Biso   1.000  H
  H48      1.0000 0.26208  0.55087  0.23243  Biso   1.000  H
