data_image0
_cell_length_a       18.3017
_cell_length_b       18.3017
_cell_length_c       18.3017
_cell_angle_alpha    60
_cell_angle_beta     60
_cell_angle_gamma    60

_symmetry_space_group_name_H-M    "P 1"
_symmetry_int_tables_number       1

loop_
  _symmetry_equiv_pos_as_xyz
  'x, y, z'

loop_
  _atom_site_label
  _atom_site_occupancy
  _atom_site_fract_x
  _atom_site_fract_y
  _atom_site_fract_z
  _atom_site_thermal_displace_type
  _atom_site_B_iso_or_equiv
  _atom_site_type_symbol
  C1       1.0000 0.29342  0.29343  0.11972  Biso   1.000  C
  C2       1.0000 0.29343  0.29342  0.29343  Biso   1.000  C
  C3       1.0000 0.11972  0.29343  0.29342  Biso   1.000  C
  C4       1.0000 0.29343  0.11972  0.29343  Biso   1.000  C
  C5       1.0000 0.70657  0.70658  0.88028  Biso   1.000  C
  C6       1.0000 0.70657  0.70658  0.70657  Biso   1.000  C
  C7       1.0000 0.70658  0.88028  0.70657  Biso   1.000  C
  C8       1.0000 0.88029  0.70657  0.70657  Biso   1.000  C
  C9       1.0000 0.45510  0.45510  0.93470  Biso   1.000  C
  C10      1.0000 0.45510  0.45510  0.15510  Biso   1.000  C
  C11      1.0000 0.93470  0.15510  0.45510  Biso   1.000  C
  C12      1.0000 0.15510  0.93470  0.45510  Biso   1.000  C
  C13      1.0000 0.45510  0.93470  0.15510  Biso   1.000  C
  C14      1.0000 0.45510  0.15510  0.93470  Biso   1.000  C
  C15      1.0000 0.93470  0.45510  0.45510  Biso   1.000  C
  C16      1.0000 0.15510  0.45510  0.45510  Biso   1.000  C
  C17      1.0000 0.45510  0.15510  0.45510  Biso   1.000  C
  C18      1.0000 0.45510  0.93470  0.45510  Biso   1.000  C
  C19      1.0000 0.93470  0.45510  0.15510  Biso   1.000  C
  C20      1.0000 0.15510  0.45510  0.93470  Biso   1.000  C
  C21      1.0000 0.54490  0.54490  0.06530  Biso   1.000  C
  C22      1.0000 0.54490  0.54490  0.84490  Biso   1.000  C
  C23      1.0000 0.84490  0.06530  0.54490  Biso   1.000  C
  C24      1.0000 0.06530  0.84490  0.54490  Biso   1.000  C
  C25      1.0000 0.06530  0.54490  0.84490  Biso   1.000  C
  C26      1.0000 0.84490  0.54490  0.06530  Biso   1.000  C
  C27      1.0000 0.54490  0.06530  0.54490  Biso   1.000  C
  C28      1.0000 0.54490  0.84490  0.54490  Biso   1.000  C
  C29      1.0000 0.84490  0.54490  0.54490  Biso   1.000  C
  C30      1.0000 0.06530  0.54490  0.54490  Biso   1.000  C
  C31      1.0000 0.54490  0.06530  0.84490  Biso   1.000  C
  C32      1.0000 0.54490  0.84490  0.06530  Biso   1.000  C
  C33      1.0000 0.47334  0.47334  0.96156  Biso   1.000  C
  C34      1.0000 0.47334  0.47334  0.09176  Biso   1.000  C
  C35      1.0000 0.96156  0.09176  0.47334  Biso   1.000  C
  C36      1.0000 0.09176  0.96156  0.47334  Biso   1.000  C
  C37      1.0000 0.47334  0.96156  0.09176  Biso   1.000  C
  C38      1.0000 0.47334  0.09176  0.96156  Biso   1.000  C
  C39      1.0000 0.96156  0.47334  0.47334  Biso   1.000  C
  C40      1.0000 0.09176  0.47334  0.47334  Biso   1.000  C
  C41      1.0000 0.47334  0.09176  0.47334  Biso   1.000  C
  C42      1.0000 0.47334  0.96156  0.47334  Biso   1.000  C
  C43      1.0000 0.96156  0.47334  0.09176  Biso   1.000  C
  C44      1.0000 0.09176  0.47334  0.96156  Biso   1.000  C
  C45      1.0000 0.52666  0.52666  0.03844  Biso   1.000  C
  C46      1.0000 0.52666  0.52666  0.90824  Biso   1.000  C
  C47      1.0000 0.90824  0.03844  0.52666  Biso   1.000  C
  C48      1.0000 0.03844  0.90824  0.52666  Biso   1.000  C
  C49      1.0000 0.03844  0.52666  0.90824  Biso   1.000  C
  C50      1.0000 0.90824  0.52666  0.03844  Biso   1.000  C
  C51      1.0000 0.52666  0.03844  0.52666  Biso   1.000  C
  C52      1.0000 0.52666  0.90824  0.52666  Biso   1.000  C
  C53      1.0000 0.90824  0.52666  0.52666  Biso   1.000  C
  C54      1.0000 0.03844  0.52666  0.52666  Biso   1.000  C
  C55      1.0000 0.52666  0.03844  0.90824  Biso   1.000  C
  C56      1.0000 0.52666  0.90824  0.03844  Biso   1.000  C
  C57      1.0000 0.38843  0.38843  0.11157  Biso   1.000  C
  C58      1.0000 0.44642  0.44642  0.05358  Biso   1.000  C
  C59      1.0000 0.11157  0.11157  0.38843  Biso   1.000  C
  C60      1.0000 0.05358  0.05358  0.44642  Biso   1.000  C
  C61      1.0000 0.38843  0.11157  0.11157  Biso   1.000  C
  C62      1.0000 0.44642  0.05358  0.05358  Biso   1.000  C
  C63      1.0000 0.11157  0.38843  0.38843  Biso   1.000  C
  C64      1.0000 0.05358  0.44642  0.44642  Biso   1.000  C
  C65      1.0000 0.38843  0.11157  0.38843  Biso   1.000  C
  C66      1.0000 0.44642  0.05358  0.44642  Biso   1.000  C
  C67      1.0000 0.11157  0.38843  0.11157  Biso   1.000  C
  C68      1.0000 0.05358  0.44642  0.05358  Biso   1.000  C
  C69      1.0000 0.61157  0.61157  0.88843  Biso   1.000  C
  C70      1.0000 0.55358  0.55358  0.94642  Biso   1.000  C
  C71      1.0000 0.88843  0.88843  0.61157  Biso   1.000  C
  C72      1.0000 0.94642  0.94642  0.55358  Biso   1.000  C
  C73      1.0000 0.88843  0.61157  0.88843  Biso   1.000  C
  C74      1.0000 0.94642  0.55358  0.94642  Biso   1.000  C
  C75      1.0000 0.61157  0.88843  0.61157  Biso   1.000  C
  C76      1.0000 0.55358  0.94642  0.55358  Biso   1.000  C
  C77      1.0000 0.88843  0.61157  0.61157  Biso   1.000  C
  C78      1.0000 0.94642  0.55358  0.55358  Biso   1.000  C
  C79      1.0000 0.61157  0.88843  0.88843  Biso   1.000  C
  C80      1.0000 0.55358  0.94642  0.94642  Biso   1.000  C
  C81      1.0000 0.25000  0.25000  0.25000  Biso   1.000  C
  C82      1.0000 0.75000  0.75000  0.75000  Biso   1.000  C
  C83      1.0000 0.36609  0.36609  0.07295  Biso   1.000  C
  C84      1.0000 0.36609  0.36609  0.19487  Biso   1.000  C
  C85      1.0000 0.07295  0.19487  0.36609  Biso   1.000  C
  C86      1.0000 0.19487  0.07295  0.36609  Biso   1.000  C
  C87      1.0000 0.36609  0.07295  0.19487  Biso   1.000  C
  C88      1.0000 0.36609  0.19487  0.07295  Biso   1.000  C
  C89      1.0000 0.07295  0.36609  0.36609  Biso   1.000  C
  C90      1.0000 0.19487  0.36609  0.36609  Biso   1.000  C
  C91      1.0000 0.36609  0.19487  0.36609  Biso   1.000  C
  C92      1.0000 0.36609  0.07295  0.36609  Biso   1.000  C
  C93      1.0000 0.07295  0.36609  0.19487  Biso   1.000  C
  C94      1.0000 0.19487  0.36609  0.07295  Biso   1.000  C
  C95      1.0000 0.63391  0.63391  0.92705  Biso   1.000  C
  C96      1.0000 0.63391  0.63391  0.80513  Biso   1.000  C
  C97      1.0000 0.80513  0.92705  0.63391  Biso   1.000  C
  C98      1.0000 0.92705  0.80513  0.63391  Biso   1.000  C
  C99      1.0000 0.92705  0.63391  0.80513  Biso   1.000  C
  C100     1.0000 0.80513  0.63391  0.92705  Biso   1.000  C
  C101     1.0000 0.63391  0.92705  0.63391  Biso   1.000  C
  C102     1.0000 0.63391  0.80513  0.63391  Biso   1.000  C
  C103     1.0000 0.80513  0.63391  0.63391  Biso   1.000  C
  C104     1.0000 0.92705  0.63391  0.63391  Biso   1.000  C
  C105     1.0000 0.63391  0.92705  0.80513  Biso   1.000  C
  C106     1.0000 0.63391  0.80513  0.92705  Biso   1.000  C
  O1       1.0000 0.76271  0.26024  0.37894  Biso   1.000  O
  O2       1.0000 0.57360  0.26024  0.56805  Biso   1.000  O
  O3       1.0000 0.57360  0.44936  0.37894  Biso   1.000  O
  O4       1.0000 0.57360  0.26024  0.37894  Biso   1.000  O
  O5       1.0000 0.14904  0.85479  0.80352  Biso   1.000  O
  O6       1.0000 0.97907  0.85479  0.97349  Biso   1.000  O
  O7       1.0000 0.14904  0.85479  0.97349  Biso   1.000  O
  O8       1.0000 0.14904  0.68482  0.97349  Biso   1.000  O
  O9       1.0000 0.00757  0.01603  0.62250  Biso   1.000  O
  O10      1.0000 0.79805  0.01603  0.83202  Biso   1.000  O
  O11      1.0000 0.31028  0.71333  0.13472  Biso   1.000  O
  O12      1.0000 0.31028  0.50381  0.13472  Biso   1.000  O
  O13      1.0000 0.31028  0.50381  0.83202  Biso   1.000  O
  O14      1.0000 0.31028  0.71333  0.62250  Biso   1.000  O
  O15      1.0000 0.00757  0.01603  0.13472  Biso   1.000  O
  O16      1.0000 0.79805  0.01603  0.13472  Biso   1.000  O
  O17      1.0000 0.79805  0.71333  0.13472  Biso   1.000  O
  O18      1.0000 0.00757  0.50381  0.13472  Biso   1.000  O
  O19      1.0000 0.31028  0.01603  0.83202  Biso   1.000  O
  O20      1.0000 0.31028  0.01603  0.62250  Biso   1.000  O
  O21      1.0000 0.89899  0.08204  0.59906  Biso   1.000  O
  O22      1.0000 0.94646  0.03241  0.65085  Biso   1.000  O
  O23      1.0000 0.77461  0.08204  0.72344  Biso   1.000  O
  O24      1.0000 0.82640  0.03241  0.77091  Biso   1.000  O
  O25      1.0000 0.37629  0.60474  0.20074  Biso   1.000  O
  O26      1.0000 0.32666  0.65222  0.15111  Biso   1.000  O
  O27      1.0000 0.37629  0.48037  0.20074  Biso   1.000  O
  O28      1.0000 0.32666  0.53216  0.15111  Biso   1.000  O
  O29      1.0000 0.37629  0.48037  0.72344  Biso   1.000  O
  O30      1.0000 0.32666  0.53216  0.77091  Biso   1.000  O
  O31      1.0000 0.37629  0.60474  0.59906  Biso   1.000  O
  O32      1.0000 0.32666  0.65222  0.65085  Biso   1.000  O
  O33      1.0000 0.89899  0.08204  0.20074  Biso   1.000  O
  O34      1.0000 0.94646  0.03241  0.15111  Biso   1.000  O
  O35      1.0000 0.77461  0.08204  0.20074  Biso   1.000  O
  O36      1.0000 0.82640  0.03241  0.15111  Biso   1.000  O
  O37      1.0000 0.77461  0.60474  0.20074  Biso   1.000  O
  O38      1.0000 0.82640  0.65222  0.15111  Biso   1.000  O
  O39      1.0000 0.89899  0.48037  0.20074  Biso   1.000  O
  O40      1.0000 0.94646  0.53216  0.15111  Biso   1.000  O
  O41      1.0000 0.37629  0.08204  0.72344  Biso   1.000  O
  O42      1.0000 0.32666  0.03241  0.77091  Biso   1.000  O
  O43      1.0000 0.37629  0.08204  0.59906  Biso   1.000  O
  O44      1.0000 0.32666  0.03241  0.65085  Biso   1.000  O
  O45      1.0000 0.74999  0.16885  0.57444  Biso   1.000  O
  O46      1.0000 0.81277  0.10608  0.63722  Biso   1.000  O
  O47      1.0000 0.96765  0.95119  0.79210  Biso   1.000  O
  O48      1.0000 0.91812  0.00073  0.74256  Biso   1.000  O
  O49      1.0000 0.46310  0.45575  0.28755  Biso   1.000  O
  O50      1.0000 0.40032  0.51852  0.22477  Biso   1.000  O
  O51      1.0000 0.24544  0.67341  0.06989  Biso   1.000  O
  O52      1.0000 0.29497  0.62387  0.11942  Biso   1.000  O
  O53      1.0000 0.46310  0.45575  0.57444  Biso   1.000  O
  O54      1.0000 0.40032  0.51852  0.63722  Biso   1.000  O
  O55      1.0000 0.24544  0.67341  0.79210  Biso   1.000  O
  O56      1.0000 0.29497  0.62387  0.74256  Biso   1.000  O
  O57      1.0000 0.74999  0.16885  0.28755  Biso   1.000  O
  O58      1.0000 0.81277  0.10608  0.22477  Biso   1.000  O
  O59      1.0000 0.96765  0.95119  0.06989  Biso   1.000  O
  O60      1.0000 0.91812  0.00073  0.11942  Biso   1.000  O
  O61      1.0000 0.74999  0.45575  0.28755  Biso   1.000  O
  O62      1.0000 0.81277  0.51852  0.22477  Biso   1.000  O
  O63      1.0000 0.96765  0.67341  0.06989  Biso   1.000  O
  O64      1.0000 0.91812  0.62387  0.11942  Biso   1.000  O
  O65      1.0000 0.46310  0.16885  0.57444  Biso   1.000  O
  O66      1.0000 0.40032  0.10608  0.63722  Biso   1.000  O
  O67      1.0000 0.24544  0.95119  0.79210  Biso   1.000  O
  O68      1.0000 0.29497  0.00073  0.74256  Biso   1.000  O
  O69      1.0000 0.10654  0.81230  0.93099  Biso   1.000  O
  O70      1.0000 0.63521  0.30275  0.42144  Biso   1.000  O
  O71      1.0000 0.78805  0.19043  0.49322  Biso   1.000  O
  O72      1.0000 0.05132  0.92677  0.75728  Biso   1.000  O
  O73      1.0000 0.66877  0.19043  0.61250  Biso   1.000  O
  O74      1.0000 0.93283  0.92677  0.87577  Biso   1.000  O
  O75      1.0000 0.48468  0.49380  0.30913  Biso   1.000  O
  O76      1.0000 0.22102  0.75708  0.04546  Biso   1.000  O
  O77      1.0000 0.48468  0.37453  0.30913  Biso   1.000  O
  O78      1.0000 0.22102  0.63858  0.04546  Biso   1.000  O
  O79      1.0000 0.48468  0.37453  0.61250  Biso   1.000  O
  O80      1.0000 0.22102  0.63858  0.87577  Biso   1.000  O
  O81      1.0000 0.48468  0.49380  0.49322  Biso   1.000  O
  O82      1.0000 0.22102  0.75708  0.75728  Biso   1.000  O
  O83      1.0000 0.78805  0.19043  0.30913  Biso   1.000  O
  O84      1.0000 0.05132  0.92677  0.04546  Biso   1.000  O
  O85      1.0000 0.66877  0.19043  0.30913  Biso   1.000  O
  O86      1.0000 0.93283  0.92677  0.04546  Biso   1.000  O
  O87      1.0000 0.66877  0.49380  0.30913  Biso   1.000  O
  O88      1.0000 0.93283  0.75708  0.04546  Biso   1.000  O
  O89      1.0000 0.78805  0.37453  0.30913  Biso   1.000  O
  O90      1.0000 0.05132  0.63858  0.04546  Biso   1.000  O
  O91      1.0000 0.48468  0.19043  0.61250  Biso   1.000  O
  O92      1.0000 0.22102  0.92677  0.87577  Biso   1.000  O
  O93      1.0000 0.48468  0.19043  0.49322  Biso   1.000  O
  O94      1.0000 0.22102  0.92677  0.75728  Biso   1.000  O
