data_image0
_cell_length_a       18.2115
_cell_length_b       18.2115
_cell_length_c       18.2115
_cell_angle_alpha    60
_cell_angle_beta     60
_cell_angle_gamma    60

loop_
  _atom_site_label
  _atom_site_occupancy
  _atom_site_fract_x
  _atom_site_fract_y
  _atom_site_fract_z
  _atom_site_thermal_displace_type
  _atom_site_B_iso_or_equiv
  _atom_site_type_symbol
  C1       1.0000 0.29361  0.29361  0.11917  Biso   1.000  C
  C2       1.0000 0.29361  0.29361  0.29361  Biso   1.000  C
  C3       1.0000 0.11917  0.29361  0.29361  Biso   1.000  C
  C4       1.0000 0.29361  0.11917  0.29361  Biso   1.000  C
  C5       1.0000 0.70639  0.70639  0.88083  Biso   1.000  C
  C6       1.0000 0.70639  0.70639  0.70639  Biso   1.000  C
  C7       1.0000 0.70639  0.88083  0.70639  Biso   1.000  C
  C8       1.0000 0.88083  0.70639  0.70639  Biso   1.000  C
  C9       1.0000 0.45530  0.45530  0.93770  Biso   1.000  C
  C10      1.0000 0.45530  0.45530  0.15170  Biso   1.000  C
  C11      1.0000 0.93770  0.15170  0.45530  Biso   1.000  C
  C12      1.0000 0.15170  0.93770  0.45530  Biso   1.000  C
  C13      1.0000 0.45530  0.93770  0.15170  Biso   1.000  C
  C14      1.0000 0.45530  0.15170  0.93770  Biso   1.000  C
  C15      1.0000 0.93770  0.45530  0.45530  Biso   1.000  C
  C16      1.0000 0.15170  0.45530  0.45530  Biso   1.000  C
  C17      1.0000 0.45530  0.15170  0.45530  Biso   1.000  C
  C18      1.0000 0.45530  0.93770  0.45530  Biso   1.000  C
  C19      1.0000 0.93770  0.45530  0.15170  Biso   1.000  C
  C20      1.0000 0.15170  0.45530  0.93770  Biso   1.000  C
  C21      1.0000 0.54470  0.54470  0.06230  Biso   1.000  C
  C22      1.0000 0.54470  0.54470  0.84830  Biso   1.000  C
  C23      1.0000 0.84830  0.06230  0.54470  Biso   1.000  C
  C24      1.0000 0.06230  0.84830  0.54470  Biso   1.000  C
  C25      1.0000 0.06230  0.54470  0.84830  Biso   1.000  C
  C26      1.0000 0.84830  0.54470  0.06230  Biso   1.000  C
  C27      1.0000 0.54470  0.06230  0.54470  Biso   1.000  C
  C28      1.0000 0.54470  0.84830  0.54470  Biso   1.000  C
  C29      1.0000 0.84830  0.54470  0.54470  Biso   1.000  C
  C30      1.0000 0.06230  0.54470  0.54470  Biso   1.000  C
  C31      1.0000 0.54470  0.06230  0.84830  Biso   1.000  C
  C32      1.0000 0.54470  0.84830  0.06230  Biso   1.000  C
  C33      1.0000 0.47300  0.47300  0.96450  Biso   1.000  C
  C34      1.0000 0.47300  0.47300  0.08950  Biso   1.000  C
  C35      1.0000 0.96450  0.08950  0.47300  Biso   1.000  C
  C36      1.0000 0.08950  0.96450  0.47300  Biso   1.000  C
  C37      1.0000 0.47300  0.96450  0.08950  Biso   1.000  C
  C38      1.0000 0.47300  0.08950  0.96450  Biso   1.000  C
  C39      1.0000 0.96450  0.47300  0.47300  Biso   1.000  C
  C40      1.0000 0.08950  0.47300  0.47300  Biso   1.000  C
  C41      1.0000 0.47300  0.08950  0.47300  Biso   1.000  C
  C42      1.0000 0.47300  0.96450  0.47300  Biso   1.000  C
  C43      1.0000 0.96450  0.47300  0.08950  Biso   1.000  C
  C44      1.0000 0.08950  0.47300  0.96450  Biso   1.000  C
  C45      1.0000 0.52700  0.52700  0.03550  Biso   1.000  C
  C46      1.0000 0.52700  0.52700  0.91050  Biso   1.000  C
  C47      1.0000 0.91050  0.03550  0.52700  Biso   1.000  C
  C48      1.0000 0.03550  0.91050  0.52700  Biso   1.000  C
  C49      1.0000 0.03550  0.52700  0.91050  Biso   1.000  C
  C50      1.0000 0.91050  0.52700  0.03550  Biso   1.000  C
  C51      1.0000 0.52700  0.03550  0.52700  Biso   1.000  C
  C52      1.0000 0.52700  0.91050  0.52700  Biso   1.000  C
  C53      1.0000 0.91050  0.52700  0.52700  Biso   1.000  C
  C54      1.0000 0.03550  0.52700  0.52700  Biso   1.000  C
  C55      1.0000 0.52700  0.03550  0.91050  Biso   1.000  C
  C56      1.0000 0.52700  0.91050  0.03550  Biso   1.000  C
  C57      1.0000 0.38860  0.38860  0.11140  Biso   1.000  C
  C58      1.0000 0.44600  0.44600  0.05400  Biso   1.000  C
  C59      1.0000 0.11140  0.11140  0.38860  Biso   1.000  C
  C60      1.0000 0.05400  0.05400  0.44600  Biso   1.000  C
  C61      1.0000 0.38860  0.11140  0.11140  Biso   1.000  C
  C62      1.0000 0.44600  0.05400  0.05400  Biso   1.000  C
  C63      1.0000 0.11140  0.38860  0.38860  Biso   1.000  C
  C64      1.0000 0.05400  0.44600  0.44600  Biso   1.000  C
  C65      1.0000 0.38860  0.11140  0.38860  Biso   1.000  C
  C66      1.0000 0.44600  0.05400  0.44600  Biso   1.000  C
  C67      1.0000 0.11140  0.38860  0.11140  Biso   1.000  C
  C68      1.0000 0.05400  0.44600  0.05400  Biso   1.000  C
  C69      1.0000 0.61140  0.61140  0.88860  Biso   1.000  C
  C70      1.0000 0.55400  0.55400  0.94600  Biso   1.000  C
  C71      1.0000 0.88860  0.88860  0.61140  Biso   1.000  C
  C72      1.0000 0.94600  0.94600  0.55400  Biso   1.000  C
  C73      1.0000 0.88860  0.61140  0.88860  Biso   1.000  C
  C74      1.0000 0.94600  0.55400  0.94600  Biso   1.000  C
  C75      1.0000 0.61140  0.88860  0.61140  Biso   1.000  C
  C76      1.0000 0.55400  0.94600  0.55400  Biso   1.000  C
  C77      1.0000 0.88860  0.61140  0.61140  Biso   1.000  C
  C78      1.0000 0.94600  0.55400  0.55400  Biso   1.000  C
  C79      1.0000 0.61140  0.88860  0.88860  Biso   1.000  C
  C80      1.0000 0.55400  0.94600  0.94600  Biso   1.000  C
  C81      1.0000 0.25000  0.25000  0.25000  Biso   1.000  C
  C82      1.0000 0.75000  0.75000  0.75000  Biso   1.000  C
  C83      1.0000 0.36611  0.36611  0.07317  Biso   1.000  C
  C84      1.0000 0.36611  0.36611  0.19461  Biso   1.000  C
  C85      1.0000 0.07317  0.19461  0.36611  Biso   1.000  C
  C86      1.0000 0.19461  0.07317  0.36611  Biso   1.000  C
  C87      1.0000 0.36611  0.07317  0.19461  Biso   1.000  C
  C88      1.0000 0.36611  0.19461  0.07317  Biso   1.000  C
  C89      1.0000 0.07317  0.36611  0.36611  Biso   1.000  C
  C90      1.0000 0.19461  0.36611  0.36611  Biso   1.000  C
  C91      1.0000 0.36611  0.19461  0.36611  Biso   1.000  C
  C92      1.0000 0.36611  0.07317  0.36611  Biso   1.000  C
  C93      1.0000 0.07317  0.36611  0.19461  Biso   1.000  C
  C94      1.0000 0.19461  0.36611  0.07317  Biso   1.000  C
  C95      1.0000 0.63389  0.63389  0.92683  Biso   1.000  C
  C96      1.0000 0.63389  0.63389  0.80539  Biso   1.000  C
  C97      1.0000 0.80539  0.92683  0.63389  Biso   1.000  C
  C98      1.0000 0.92683  0.80539  0.63389  Biso   1.000  C
  C99      1.0000 0.92683  0.63389  0.80539  Biso   1.000  C
  C100     1.0000 0.80539  0.63389  0.92683  Biso   1.000  C
  C101     1.0000 0.63389  0.92683  0.63389  Biso   1.000  C
  C102     1.0000 0.63389  0.80539  0.63389  Biso   1.000  C
  C103     1.0000 0.80539  0.63389  0.63389  Biso   1.000  C
  C104     1.0000 0.92683  0.63389  0.63389  Biso   1.000  C
  C105     1.0000 0.63389  0.92683  0.80539  Biso   1.000  C
  C106     1.0000 0.63389  0.80539  0.92683  Biso   1.000  C
  O1       1.0000 0.92658  0.92550  0.06702  Biso   1.000  O
  O2       1.0000 0.09870  0.92545  0.89490  Biso   1.000  O
  O3       1.0000 0.09875  0.75333  0.06702  Biso   1.000  O
  O4       1.0000 0.09870  0.92545  0.06707  Biso   1.000  O
  O5       1.0000 0.68815  0.33599  0.48436  Biso   1.000  O
  O6       1.0000 0.51603  0.33603  0.65648  Biso   1.000  O
  O7       1.0000 0.51598  0.50815  0.48436  Biso   1.000  O
  O8       1.0000 0.51603  0.33604  0.48431  Biso   1.000  O
  O9       1.0000 0.76864  0.10471  0.86748  Biso   1.000  O
  O10      1.0000 0.76763  0.72572  0.25224  Biso   1.000  O
  O11      1.0000 0.76882  0.10533  0.25125  Biso   1.000  O
  O12      1.0000 0.89915  0.10372  0.73696  Biso   1.000  O
  O13      1.0000 0.28392  0.10571  0.73596  Biso   1.000  O
  O14      1.0000 0.28293  0.72591  0.73715  Biso   1.000  O
  O15      1.0000 0.28470  0.58864  0.25203  Biso   1.000  O
  O16      1.0000 0.89894  0.58764  0.25403  Biso   1.000  O
  O17      1.0000 0.28531  0.58882  0.86747  Biso   1.000  O
  O18      1.0000 0.28371  0.72593  0.25303  Biso   1.000  O
  O19      1.0000 0.28571  0.10392  0.86727  Biso   1.000  O
  O20      1.0000 0.89914  0.10294  0.25363  Biso   1.000  O
  O21      1.0000 0.84609  0.15678  0.68390  Biso   1.000  O
  O22      1.0000 0.84709  0.53579  0.30588  Biso   1.000  O
  O23      1.0000 0.84590  0.15618  0.30687  Biso   1.000  O
  O24      1.0000 0.71558  0.15777  0.81442  Biso   1.000  O
  O25      1.0000 0.33756  0.15577  0.81542  Biso   1.000  O
  O26      1.0000 0.33855  0.53558  0.81423  Biso   1.000  O
  O27      1.0000 0.33677  0.66609  0.30609  Biso   1.000  O
  O28      1.0000 0.71578  0.66709  0.30409  Biso   1.000  O
  O29      1.0000 0.33616  0.66589  0.68391  Biso   1.000  O
  O30      1.0000 0.33776  0.53558  0.30509  Biso   1.000  O
  O31      1.0000 0.33577  0.15756  0.68411  Biso   1.000  O
  O32      1.0000 0.71558  0.15856  0.30449  Biso   1.000  O
  O33      1.0000 0.86080  0.07731  0.82913  Biso   1.000  O
  O34      1.0000 0.91909  0.01902  0.88741  Biso   1.000  O
  O35      1.0000 0.25730  0.68758  0.22562  Biso   1.000  O
  O36      1.0000 0.19227  0.74584  0.16060  Biso   1.000  O
  O37      1.0000 0.75393  0.18418  0.72225  Biso   1.000  O
  O38      1.0000 0.69564  0.24246  0.66397  Biso   1.000  O
  O39      1.0000 0.36417  0.57393  0.33250  Biso   1.000  O
  O40      1.0000 0.42246  0.51565  0.39078  Biso   1.000  O
  O41      1.0000 0.86060  0.07752  0.22582  Biso   1.000  O
  O42      1.0000 0.91861  0.01949  0.16108  Biso   1.000  O
  O43      1.0000 0.25750  0.68059  0.82893  Biso   1.000  O
  O44      1.0000 0.19275  0.74537  0.88694  Biso   1.000  O
  O45      1.0000 0.75412  0.18399  0.33230  Biso   1.000  O
  O46      1.0000 0.69612  0.24199  0.39031  Biso   1.000  O
  O47      1.0000 0.36398  0.57412  0.72245  Biso   1.000  O
  O48      1.0000 0.42198  0.51612  0.66445  Biso   1.000  O
  O49      1.0000 0.86040  0.68041  0.22602  Biso   1.000  O
  O50      1.0000 0.91841  0.74516  0.16127  Biso   1.000  O
  O51      1.0000 0.25770  0.07770  0.82873  Biso   1.000  O
  O52      1.0000 0.19295  0.01970  0.88674  Biso   1.000  O
  O53      1.0000 0.75432  0.57433  0.33210  Biso   1.000  O
  O54      1.0000 0.69632  0.51632  0.39011  Biso   1.000  O
  O55      1.0000 0.36378  0.18378  0.72265  Biso   1.000  O
  O56      1.0000 0.42178  0.24179  0.66464  Biso   1.000  O
  O57      1.0000 0.87872  0.99657  0.97109  Biso   1.000  O
  O58      1.0000 0.87922  0.99850  0.13815  Biso   1.000  O
  O59      1.0000 0.87836  0.82993  0.13851  Biso   1.000  O
  O60      1.0000 0.00276  0.99817  0.84705  Biso   1.000  O
  O61      1.0000 0.16982  0.82868  0.84754  Biso   1.000  O
  O62      1.0000 0.17018  0.99775  0.84669  Biso   1.000  O
  O63      1.0000 0.16983  0.70548  0.13974  Biso   1.000  O
  O64      1.0000 0.17175  0.70598  0.97025  Biso   1.000  O
  O65      1.0000 0.00318  0.70512  0.13932  Biso   1.000  O
  O66      1.0000 0.17141  0.82951  0.13815  Biso   1.000  O
  O67      1.0000 0.00193  0.99657  0.14008  Biso   1.000  O
  O68      1.0000 0.17100  0.99693  0.97150  Biso   1.000  O
  O69      1.0000 0.73601  0.26491  0.58030  Biso   1.000  O
  O70      1.0000 0.73551  0.26299  0.41323  Biso   1.000  O
  O71      1.0000 0.73636  0.43156  0.41287  Biso   1.000  O
  O72      1.0000 0.61197  0.26332  0.70433  Biso   1.000  O
  O73      1.0000 0.44491  0.43280  0.70384  Biso   1.000  O
  O74      1.0000 0.44455  0.26374  0.70469  Biso   1.000  O
  O75      1.0000 0.44490  0.55601  0.41164  Biso   1.000  O
  O76      1.0000 0.44298  0.55551  0.58113  Biso   1.000  O
  O77      1.0000 0.61155  0.55637  0.41206  Biso   1.000  O
  O78      1.0000 0.44331  0.43198  0.41323  Biso   1.000  O
  O79      1.0000 0.61280  0.26492  0.41130  Biso   1.000  O
  O80      1.0000 0.44373  0.26455  0.57988  Biso   1.000  O
  O81      1.0000 0.05568  0.88243  0.02401  Biso   1.000  O
  O82      1.0000 0.55905  0.37905  0.52738  Biso   1.000  O
  O83      1.0000 0.73567  0.80180  0.22945  Biso   1.000  O
  O84      1.0000 0.97502  0.55568  0.23270  Biso   1.000  O
  O85      1.0000 0.87905  0.45971  0.32867  Biso   1.000  O
  O86      1.0000 0.63970  0.70583  0.32542  Biso   1.000  O
  O87      1.0000 0.26424  0.55685  0.94354  Biso   1.000  O
  O88      1.0000 0.36159  0.45951  0.84619  Biso   1.000  O
  O89      1.0000 0.73686  0.08426  0.22820  Biso   1.000  O
  O90      1.0000 0.63951  0.18161  0.32555  Biso   1.000  O
  O91      1.0000 0.97523  0.08125  0.70499  Biso   1.000  O
  O92      1.0000 0.26112  0.08439  0.70400  Biso   1.000  O
  O93      1.0000 0.36023  0.45950  0.32674  Biso   1.000  O
  O94      1.0000 0.35709  0.18036  0.60803  Biso   1.000  O
  O95      1.0000 0.25988  0.80198  0.70519  Biso   1.000  O
  O96      1.0000 0.35723  0.70463  0.60784  Biso   1.000  O
  O97      1.0000 0.97521  0.07990  0.23257  Biso   1.000  O
  O98      1.0000 0.87786  0.17725  0.32991  Biso   1.000  O
  O99      1.0000 0.35841  0.70484  0.32855  Biso   1.000  O
  O100     1.0000 0.26438  0.08113  0.94335  Biso   1.000  O
  O101     1.0000 0.36035  0.17709  0.84738  Biso   1.000  O
  O102     1.0000 0.26124  0.80201  0.23138  Biso   1.000  O
  O103     1.0000 0.63949  0.18023  0.84639  Biso   1.000  O
  O104     1.0000 0.73667  0.08306  0.94356  Biso   1.000  O
  O105     1.0000 0.87806  0.17842  0.60782  Biso   1.000  O
  O106     1.0000 0.26306  0.55667  0.22957  Biso   1.000  O
