data_image0
_cell_length_a       18.2422
_cell_length_b       18.2422
_cell_length_c       18.2422
_cell_angle_alpha    60
_cell_angle_beta     60
_cell_angle_gamma    60

loop_
  _atom_site_label
  _atom_site_occupancy
  _atom_site_fract_x
  _atom_site_fract_y
  _atom_site_fract_z
  _atom_site_thermal_displace_type
  _atom_site_B_iso_or_equiv
  _atom_site_type_symbol
  C1       1.0000 0.29356  0.29355  0.11934  Biso   1.000  C
  C2       1.0000 0.29356  0.29355  0.29355  Biso   1.000  C
  C3       1.0000 0.11935  0.29355  0.29355  Biso   1.000  C
  C4       1.0000 0.29356  0.11934  0.29355  Biso   1.000  C
  C5       1.0000 0.70644  0.70645  0.88066  Biso   1.000  C
  C6       1.0000 0.70644  0.70645  0.70645  Biso   1.000  C
  C7       1.0000 0.70644  0.88066  0.70645  Biso   1.000  C
  C8       1.0000 0.88065  0.70645  0.70645  Biso   1.000  C
  C9       1.0000 0.45610  0.45610  0.93590  Biso   1.000  C
  C10      1.0000 0.45610  0.45610  0.15190  Biso   1.000  C
  C11      1.0000 0.93590  0.15190  0.45610  Biso   1.000  C
  C12      1.0000 0.15190  0.93590  0.45610  Biso   1.000  C
  C13      1.0000 0.45610  0.93590  0.15190  Biso   1.000  C
  C14      1.0000 0.45610  0.15190  0.93590  Biso   1.000  C
  C15      1.0000 0.93590  0.45610  0.45610  Biso   1.000  C
  C16      1.0000 0.15190  0.45610  0.45610  Biso   1.000  C
  C17      1.0000 0.45610  0.15190  0.45610  Biso   1.000  C
  C18      1.0000 0.45610  0.93590  0.45610  Biso   1.000  C
  C19      1.0000 0.93590  0.45610  0.15190  Biso   1.000  C
  C20      1.0000 0.15190  0.45610  0.93590  Biso   1.000  C
  C21      1.0000 0.54390  0.54390  0.06410  Biso   1.000  C
  C22      1.0000 0.54390  0.54390  0.84810  Biso   1.000  C
  C23      1.0000 0.84810  0.06410  0.54390  Biso   1.000  C
  C24      1.0000 0.06410  0.84810  0.54390  Biso   1.000  C
  C25      1.0000 0.06410  0.54390  0.84810  Biso   1.000  C
  C26      1.0000 0.84810  0.54390  0.06410  Biso   1.000  C
  C27      1.0000 0.54390  0.06410  0.54390  Biso   1.000  C
  C28      1.0000 0.54390  0.84810  0.54390  Biso   1.000  C
  C29      1.0000 0.84810  0.54390  0.54390  Biso   1.000  C
  C30      1.0000 0.06410  0.54390  0.54390  Biso   1.000  C
  C31      1.0000 0.54390  0.06410  0.84810  Biso   1.000  C
  C32      1.0000 0.54390  0.84810  0.06410  Biso   1.000  C
  C33      1.0000 0.47369  0.47369  0.96285  Biso   1.000  C
  C34      1.0000 0.47369  0.47369  0.08977  Biso   1.000  C
  C35      1.0000 0.96285  0.08977  0.47369  Biso   1.000  C
  C36      1.0000 0.08977  0.96285  0.47369  Biso   1.000  C
  C37      1.0000 0.47369  0.96285  0.08977  Biso   1.000  C
  C38      1.0000 0.47369  0.08977  0.96285  Biso   1.000  C
  C39      1.0000 0.96285  0.47369  0.47369  Biso   1.000  C
  C40      1.0000 0.08977  0.47369  0.47369  Biso   1.000  C
  C41      1.0000 0.47369  0.08977  0.47369  Biso   1.000  C
  C42      1.0000 0.47369  0.96285  0.47369  Biso   1.000  C
  C43      1.0000 0.96285  0.47369  0.08977  Biso   1.000  C
  C44      1.0000 0.08977  0.47369  0.96285  Biso   1.000  C
  C45      1.0000 0.52631  0.52631  0.03715  Biso   1.000  C
  C46      1.0000 0.52631  0.52631  0.91023  Biso   1.000  C
  C47      1.0000 0.91023  0.03715  0.52631  Biso   1.000  C
  C48      1.0000 0.03715  0.91023  0.52631  Biso   1.000  C
  C49      1.0000 0.03715  0.52631  0.91023  Biso   1.000  C
  C50      1.0000 0.91023  0.52631  0.03715  Biso   1.000  C
  C51      1.0000 0.52631  0.03715  0.52631  Biso   1.000  C
  C52      1.0000 0.52631  0.91023  0.52631  Biso   1.000  C
  C53      1.0000 0.91023  0.52631  0.52631  Biso   1.000  C
  C54      1.0000 0.03715  0.52631  0.52631  Biso   1.000  C
  C55      1.0000 0.52631  0.03715  0.91023  Biso   1.000  C
  C56      1.0000 0.52631  0.91023  0.03715  Biso   1.000  C
  C57      1.0000 0.38870  0.38870  0.11130  Biso   1.000  C
  C58      1.0000 0.44610  0.44610  0.05390  Biso   1.000  C
  C59      1.0000 0.11130  0.11130  0.38870  Biso   1.000  C
  C60      1.0000 0.05390  0.05390  0.44610  Biso   1.000  C
  C61      1.0000 0.38870  0.11130  0.11130  Biso   1.000  C
  C62      1.0000 0.44610  0.05390  0.05390  Biso   1.000  C
  C63      1.0000 0.11130  0.38870  0.38870  Biso   1.000  C
  C64      1.0000 0.05390  0.44610  0.44610  Biso   1.000  C
  C65      1.0000 0.38870  0.11130  0.38870  Biso   1.000  C
  C66      1.0000 0.44610  0.05390  0.44610  Biso   1.000  C
  C67      1.0000 0.11130  0.38870  0.11130  Biso   1.000  C
  C68      1.0000 0.05390  0.44610  0.05390  Biso   1.000  C
  C69      1.0000 0.61130  0.61130  0.88870  Biso   1.000  C
  C70      1.0000 0.55390  0.55390  0.94610  Biso   1.000  C
  C71      1.0000 0.88870  0.88870  0.61130  Biso   1.000  C
  C72      1.0000 0.94610  0.94610  0.55390  Biso   1.000  C
  C73      1.0000 0.88870  0.61130  0.88870  Biso   1.000  C
  C74      1.0000 0.94610  0.55390  0.94610  Biso   1.000  C
  C75      1.0000 0.61130  0.88870  0.61130  Biso   1.000  C
  C76      1.0000 0.55390  0.94610  0.55390  Biso   1.000  C
  C77      1.0000 0.88870  0.61130  0.61130  Biso   1.000  C
  C78      1.0000 0.94610  0.55390  0.55390  Biso   1.000  C
  C79      1.0000 0.61130  0.88870  0.88870  Biso   1.000  C
  C80      1.0000 0.55390  0.94610  0.94610  Biso   1.000  C
  C81      1.0000 0.25000  0.25000  0.25000  Biso   1.000  C
  C82      1.0000 0.75000  0.75000  0.75000  Biso   1.000  C
  C83      1.0000 0.36609  0.36609  0.07323  Biso   1.000  C
  C84      1.0000 0.36609  0.36609  0.19459  Biso   1.000  C
  C85      1.0000 0.07323  0.19459  0.36609  Biso   1.000  C
  C86      1.0000 0.19459  0.07323  0.36609  Biso   1.000  C
  C87      1.0000 0.36609  0.07323  0.19459  Biso   1.000  C
  C88      1.0000 0.36609  0.19459  0.07323  Biso   1.000  C
  C89      1.0000 0.07323  0.36609  0.36609  Biso   1.000  C
  C90      1.0000 0.19459  0.36609  0.36609  Biso   1.000  C
  C91      1.0000 0.36609  0.19459  0.36609  Biso   1.000  C
  C92      1.0000 0.36609  0.07323  0.36609  Biso   1.000  C
  C93      1.0000 0.07323  0.36609  0.19459  Biso   1.000  C
  C94      1.0000 0.19459  0.36609  0.07323  Biso   1.000  C
  C95      1.0000 0.63391  0.63391  0.92677  Biso   1.000  C
  C96      1.0000 0.63391  0.63391  0.80541  Biso   1.000  C
  C97      1.0000 0.80541  0.92677  0.63391  Biso   1.000  C
  C98      1.0000 0.92677  0.80541  0.63391  Biso   1.000  C
  C99      1.0000 0.92677  0.63391  0.80541  Biso   1.000  C
  C100     1.0000 0.80541  0.63391  0.92677  Biso   1.000  C
  C101     1.0000 0.63391  0.92677  0.63391  Biso   1.000  C
  C102     1.0000 0.63391  0.80541  0.63391  Biso   1.000  C
  C103     1.0000 0.80541  0.63391  0.63391  Biso   1.000  C
  C104     1.0000 0.92677  0.63391  0.63391  Biso   1.000  C
  C105     1.0000 0.63391  0.92677  0.80541  Biso   1.000  C
  C106     1.0000 0.63391  0.80541  0.92677  Biso   1.000  C
  O1       1.0000 0.92346  0.92238  0.06680  Biso   1.000  O
  O2       1.0000 0.09500  0.92234  0.89526  Biso   1.000  O
  O3       1.0000 0.09505  0.75080  0.06680  Biso   1.000  O
  O4       1.0000 0.09500  0.92233  0.06685  Biso   1.000  O
  O5       1.0000 0.68584  0.33150  0.48609  Biso   1.000  O
  O6       1.0000 0.51430  0.33154  0.65763  Biso   1.000  O
  O7       1.0000 0.51425  0.50308  0.48609  Biso   1.000  O
  O8       1.0000 0.51430  0.33155  0.48604  Biso   1.000  O
  O9       1.0000 0.76605  0.10099  0.86792  Biso   1.000  O
  O10      1.0000 0.76505  0.72328  0.25476  Biso   1.000  O
  O11      1.0000 0.76624  0.10161  0.25377  Biso   1.000  O
  O12      1.0000 0.89613  0.10001  0.73785  Biso   1.000  O
  O13      1.0000 0.28296  0.10200  0.73685  Biso   1.000  O
  O14      1.0000 0.28197  0.72346  0.73804  Biso   1.000  O
  O15      1.0000 0.28374  0.58330  0.25455  Biso   1.000  O
  O16      1.0000 0.89592  0.58230  0.25654  Biso   1.000  O
  O17      1.0000 0.28435  0.58347  0.86791  Biso   1.000  O
  O18      1.0000 0.28275  0.72348  0.25554  Biso   1.000  O
  O19      1.0000 0.28475  0.10021  0.86772  Biso   1.000  O
  O20      1.0000 0.89611  0.09923  0.25614  Biso   1.000  O
  O21      1.0000 0.84325  0.15289  0.68497  Biso   1.000  O
  O22      1.0000 0.84424  0.53063  0.30821  Biso   1.000  O
  O23      1.0000 0.84305  0.15229  0.30920  Biso   1.000  O
  O24      1.0000 0.71317  0.15387  0.81504  Biso   1.000  O
  O25      1.0000 0.33642  0.15188  0.81604  Biso   1.000  O
  O26      1.0000 0.33741  0.53042  0.81485  Biso   1.000  O
  O27      1.0000 0.33563  0.66049  0.30842  Biso   1.000  O
  O28      1.0000 0.71338  0.66149  0.30643  Biso   1.000  O
  O29      1.0000 0.33503  0.66029  0.68498  Biso   1.000  O
  O30      1.0000 0.33662  0.53042  0.30743  Biso   1.000  O
  O31      1.0000 0.33464  0.15367  0.68517  Biso   1.000  O
  O32      1.0000 0.71318  0.15467  0.30683  Biso   1.000  O
  O33      1.0000 0.85791  0.07368  0.82970  Biso   1.000  O
  O34      1.0000 0.91600  0.01560  0.88779  Biso   1.000  O
  O35      1.0000 0.25643  0.68527  0.22823  Biso   1.000  O
  O36      1.0000 0.18826  0.74333  0.16006  Biso   1.000  O
  O37      1.0000 0.75139  0.18020  0.72319  Biso   1.000  O
  O38      1.0000 0.69330  0.23828  0.66510  Biso   1.000  O
  O39      1.0000 0.36295  0.56864  0.33474  Biso   1.000  O
  O40      1.0000 0.42103  0.51055  0.39283  Biso   1.000  O
  O41      1.0000 0.85770  0.07389  0.22842  Biso   1.000  O
  O42      1.0000 0.91552  0.01606  0.16053  Biso   1.000  O
  O43      1.0000 0.25663  0.67494  0.82950  Biso   1.000  O
  O44      1.0000 0.18874  0.74286  0.88732  Biso   1.000  O
  O45      1.0000 0.75159  0.18001  0.33454  Biso   1.000  O
  O46      1.0000 0.69378  0.23782  0.39236  Biso   1.000  O
  O47      1.0000 0.36275  0.56883  0.72339  Biso   1.000  O
  O48      1.0000 0.42056  0.51102  0.66557  Biso   1.000  O
  O49      1.0000 0.85751  0.67475  0.22862  Biso   1.000  O
  O50      1.0000 0.91532  0.74266  0.16073  Biso   1.000  O
  O51      1.0000 0.25683  0.07408  0.82931  Biso   1.000  O
  O52      1.0000 0.18893  0.01627  0.88712  Biso   1.000  O
  O53      1.0000 0.75178  0.56903  0.33435  Biso   1.000  O
  O54      1.0000 0.69397  0.51122  0.39216  Biso   1.000  O
  O55      1.0000 0.36255  0.17980  0.72358  Biso   1.000  O
  O56      1.0000 0.42036  0.23761  0.66577  Biso   1.000  O
  O57      1.0000 0.87577  0.99322  0.97118  Biso   1.000  O
  O58      1.0000 0.87626  0.99514  0.13769  Biso   1.000  O
  O59      1.0000 0.87541  0.82714  0.13804  Biso   1.000  O
  O60      1.0000 0.99939  0.99481  0.84756  Biso   1.000  O
  O61      1.0000 0.16589  0.82589  0.84806  Biso   1.000  O
  O62      1.0000 0.16625  0.99439  0.84720  Biso   1.000  O
  O63      1.0000 0.16589  0.70310  0.13927  Biso   1.000  O
  O64      1.0000 0.16781  0.70360  0.97035  Biso   1.000  O
  O65      1.0000 0.99980  0.70275  0.13886  Biso   1.000  O
  O66      1.0000 0.16748  0.82672  0.13769  Biso   1.000  O
  O67      1.0000 0.99856  0.99322  0.13961  Biso   1.000  O
  O68      1.0000 0.16706  0.99358  0.97160  Biso   1.000  O
  O69      1.0000 0.73353  0.26066  0.58171  Biso   1.000  O
  O70      1.0000 0.73304  0.25874  0.41520  Biso   1.000  O
  O71      1.0000 0.73389  0.42674  0.41485  Biso   1.000  O
  O72      1.0000 0.60991  0.25907  0.70533  Biso   1.000  O
  O73      1.0000 0.44341  0.42798  0.70483  Biso   1.000  O
  O74      1.0000 0.44305  0.25949  0.70569  Biso   1.000  O
  O75      1.0000 0.44341  0.55078  0.41362  Biso   1.000  O
  O76      1.0000 0.44149  0.55028  0.58254  Biso   1.000  O
  O77      1.0000 0.60949  0.55113  0.41403  Biso   1.000  O
  O78      1.0000 0.44182  0.42716  0.41520  Biso   1.000  O
  O79      1.0000 0.61074  0.26066  0.41328  Biso   1.000  O
  O80      1.0000 0.44224  0.26030  0.58129  Biso   1.000  O
  O81      1.0000 0.05213  0.87946  0.02393  Biso   1.000  O
  O82      1.0000 0.55717  0.37442  0.52896  Biso   1.000  O
  O83      1.0000 0.73319  0.79910  0.23204  Biso   1.000  O
  O84      1.0000 0.97174  0.55044  0.23528  Biso   1.000  O
  O85      1.0000 0.87610  0.45480  0.33093  Biso   1.000  O
  O86      1.0000 0.63755  0.70346  0.32768  Biso   1.000  O
  O87      1.0000 0.26336  0.55162  0.94373  Biso   1.000  O
  O88      1.0000 0.36038  0.45460  0.84671  Biso   1.000  O
  O89      1.0000 0.73438  0.08062  0.23080  Biso   1.000  O
  O90      1.0000 0.63736  0.17763  0.32782  Biso   1.000  O
  O91      1.0000 0.97195  0.07762  0.70598  Biso   1.000  O
  O92      1.0000 0.26025  0.08074  0.70499  Biso   1.000  O
  O93      1.0000 0.35902  0.45459  0.32900  Biso   1.000  O
  O94      1.0000 0.35589  0.17639  0.60935  Biso   1.000  O
  O95      1.0000 0.25901  0.79928  0.70618  Biso   1.000  O
  O96      1.0000 0.35603  0.70226  0.60916  Biso   1.000  O
  O97      1.0000 0.97193  0.07627  0.23515  Biso   1.000  O
  O98      1.0000 0.87491  0.17329  0.33217  Biso   1.000  O
  O99      1.0000 0.35720  0.70247  0.33081  Biso   1.000  O
  O100     1.0000 0.26349  0.07749  0.94354  Biso   1.000  O
  O101     1.0000 0.35914  0.17314  0.84790  Biso   1.000  O
  O102     1.0000 0.26036  0.79931  0.23397  Biso   1.000  O
  O103     1.0000 0.63734  0.17626  0.84691  Biso   1.000  O
  O104     1.0000 0.73419  0.07942  0.94375  Biso   1.000  O
  O105     1.0000 0.87511  0.17446  0.60914  Biso   1.000  O
  O106     1.0000 0.26217  0.55143  0.23216  Biso   1.000  O
