data_image0
_cell_length_a       18.2344
_cell_length_b       18.2344
_cell_length_c       18.2344
_cell_angle_alpha    60
_cell_angle_beta     60
_cell_angle_gamma    60

loop_
  _atom_site_label
  _atom_site_occupancy
  _atom_site_fract_x
  _atom_site_fract_y
  _atom_site_fract_z
  _atom_site_thermal_displace_type
  _atom_site_B_iso_or_equiv
  _atom_site_type_symbol
  C1       1.0000 0.29357  0.29359  0.11925  Biso   1.000  C
  C2       1.0000 0.29358  0.29358  0.29359  Biso   1.000  C
  C3       1.0000 0.11924  0.29359  0.29358  Biso   1.000  C
  C4       1.0000 0.29358  0.11925  0.29359  Biso   1.000  C
  C5       1.0000 0.70642  0.70642  0.88075  Biso   1.000  C
  C6       1.0000 0.70641  0.70642  0.70642  Biso   1.000  C
  C7       1.0000 0.70642  0.88075  0.70642  Biso   1.000  C
  C8       1.0000 0.88075  0.70642  0.70641  Biso   1.000  C
  C9       1.0000 0.45590  0.45590  0.93650  Biso   1.000  C
  C10      1.0000 0.45590  0.45590  0.15170  Biso   1.000  C
  C11      1.0000 0.93650  0.15170  0.45590  Biso   1.000  C
  C12      1.0000 0.15170  0.93650  0.45590  Biso   1.000  C
  C13      1.0000 0.45590  0.93650  0.15170  Biso   1.000  C
  C14      1.0000 0.45590  0.15170  0.93650  Biso   1.000  C
  C15      1.0000 0.93650  0.45590  0.45590  Biso   1.000  C
  C16      1.0000 0.15170  0.45590  0.45590  Biso   1.000  C
  C17      1.0000 0.45590  0.15170  0.45590  Biso   1.000  C
  C18      1.0000 0.45590  0.93650  0.45590  Biso   1.000  C
  C19      1.0000 0.93650  0.45590  0.15170  Biso   1.000  C
  C20      1.0000 0.15170  0.45590  0.93650  Biso   1.000  C
  C21      1.0000 0.54410  0.54410  0.06350  Biso   1.000  C
  C22      1.0000 0.54410  0.54410  0.84830  Biso   1.000  C
  C23      1.0000 0.84830  0.06350  0.54410  Biso   1.000  C
  C24      1.0000 0.06350  0.84830  0.54410  Biso   1.000  C
  C25      1.0000 0.06350  0.54410  0.84830  Biso   1.000  C
  C26      1.0000 0.84830  0.54410  0.06350  Biso   1.000  C
  C27      1.0000 0.54410  0.06350  0.54410  Biso   1.000  C
  C28      1.0000 0.54410  0.84830  0.54410  Biso   1.000  C
  C29      1.0000 0.84830  0.54410  0.54410  Biso   1.000  C
  C30      1.0000 0.06350  0.54410  0.54410  Biso   1.000  C
  C31      1.0000 0.54410  0.06350  0.84830  Biso   1.000  C
  C32      1.0000 0.54410  0.84830  0.06350  Biso   1.000  C
  C33      1.0000 0.47360  0.47360  0.96326  Biso   1.000  C
  C34      1.0000 0.47360  0.47360  0.08954  Biso   1.000  C
  C35      1.0000 0.96326  0.08954  0.47360  Biso   1.000  C
  C36      1.0000 0.08954  0.96326  0.47360  Biso   1.000  C
  C37      1.0000 0.47360  0.96326  0.08954  Biso   1.000  C
  C38      1.0000 0.47360  0.08954  0.96326  Biso   1.000  C
  C39      1.0000 0.96326  0.47360  0.47360  Biso   1.000  C
  C40      1.0000 0.08954  0.47360  0.47360  Biso   1.000  C
  C41      1.0000 0.47360  0.08954  0.47360  Biso   1.000  C
  C42      1.0000 0.47360  0.96326  0.47360  Biso   1.000  C
  C43      1.0000 0.96326  0.47360  0.08954  Biso   1.000  C
  C44      1.0000 0.08954  0.47360  0.96326  Biso   1.000  C
  C45      1.0000 0.52640  0.52640  0.03674  Biso   1.000  C
  C46      1.0000 0.52640  0.52640  0.91046  Biso   1.000  C
  C47      1.0000 0.91046  0.03674  0.52640  Biso   1.000  C
  C48      1.0000 0.03674  0.91046  0.52640  Biso   1.000  C
  C49      1.0000 0.03674  0.52640  0.91046  Biso   1.000  C
  C50      1.0000 0.91046  0.52640  0.03674  Biso   1.000  C
  C51      1.0000 0.52640  0.03674  0.52640  Biso   1.000  C
  C52      1.0000 0.52640  0.91046  0.52640  Biso   1.000  C
  C53      1.0000 0.91046  0.52640  0.52640  Biso   1.000  C
  C54      1.0000 0.03674  0.52640  0.52640  Biso   1.000  C
  C55      1.0000 0.52640  0.03674  0.91046  Biso   1.000  C
  C56      1.0000 0.52640  0.91046  0.03674  Biso   1.000  C
  C57      1.0000 0.38860  0.38860  0.11140  Biso   1.000  C
  C58      1.0000 0.44640  0.44640  0.05360  Biso   1.000  C
  C59      1.0000 0.11140  0.11140  0.38860  Biso   1.000  C
  C60      1.0000 0.05360  0.05360  0.44640  Biso   1.000  C
  C61      1.0000 0.38860  0.11140  0.11140  Biso   1.000  C
  C62      1.0000 0.44640  0.05360  0.05360  Biso   1.000  C
  C63      1.0000 0.11140  0.38860  0.38860  Biso   1.000  C
  C64      1.0000 0.05360  0.44640  0.44640  Biso   1.000  C
  C65      1.0000 0.38860  0.11140  0.38860  Biso   1.000  C
  C66      1.0000 0.44640  0.05360  0.44640  Biso   1.000  C
  C67      1.0000 0.11140  0.38860  0.11140  Biso   1.000  C
  C68      1.0000 0.05360  0.44640  0.05360  Biso   1.000  C
  C69      1.0000 0.61140  0.61140  0.88860  Biso   1.000  C
  C70      1.0000 0.55360  0.55360  0.94640  Biso   1.000  C
  C71      1.0000 0.88860  0.88860  0.61140  Biso   1.000  C
  C72      1.0000 0.94640  0.94640  0.55360  Biso   1.000  C
  C73      1.0000 0.88860  0.61140  0.88860  Biso   1.000  C
  C74      1.0000 0.94640  0.55360  0.94640  Biso   1.000  C
  C75      1.0000 0.61140  0.88860  0.61140  Biso   1.000  C
  C76      1.0000 0.55360  0.94640  0.55360  Biso   1.000  C
  C77      1.0000 0.88860  0.61140  0.61140  Biso   1.000  C
  C78      1.0000 0.94640  0.55360  0.55360  Biso   1.000  C
  C79      1.0000 0.61140  0.88860  0.88860  Biso   1.000  C
  C80      1.0000 0.55360  0.94640  0.94640  Biso   1.000  C
  C81      1.0000 0.25000  0.25000  0.25000  Biso   1.000  C
  C82      1.0000 0.75000  0.75000  0.75000  Biso   1.000  C
  C83      1.0000 0.36604  0.36604  0.07340  Biso   1.000  C
  C84      1.0000 0.36604  0.36604  0.19452  Biso   1.000  C
  C85      1.0000 0.07340  0.19452  0.36604  Biso   1.000  C
  C86      1.0000 0.19452  0.07340  0.36604  Biso   1.000  C
  C87      1.0000 0.36604  0.07340  0.19452  Biso   1.000  C
  C88      1.0000 0.36604  0.19452  0.07340  Biso   1.000  C
  C89      1.0000 0.07340  0.36604  0.36604  Biso   1.000  C
  C90      1.0000 0.19452  0.36604  0.36604  Biso   1.000  C
  C91      1.0000 0.36604  0.19452  0.36604  Biso   1.000  C
  C92      1.0000 0.36604  0.07340  0.36604  Biso   1.000  C
  C93      1.0000 0.07340  0.36604  0.19452  Biso   1.000  C
  C94      1.0000 0.19452  0.36604  0.07340  Biso   1.000  C
  C95      1.0000 0.63396  0.63396  0.92660  Biso   1.000  C
  C96      1.0000 0.63396  0.63396  0.80548  Biso   1.000  C
  C97      1.0000 0.80548  0.92660  0.63396  Biso   1.000  C
  C98      1.0000 0.92660  0.80548  0.63396  Biso   1.000  C
  C99      1.0000 0.92660  0.63396  0.80548  Biso   1.000  C
  C100     1.0000 0.80548  0.63396  0.92660  Biso   1.000  C
  C101     1.0000 0.63396  0.92660  0.63396  Biso   1.000  C
  C102     1.0000 0.63396  0.80548  0.63396  Biso   1.000  C
  C103     1.0000 0.80548  0.63396  0.63396  Biso   1.000  C
  C104     1.0000 0.92660  0.63396  0.63396  Biso   1.000  C
  C105     1.0000 0.63396  0.92660  0.80548  Biso   1.000  C
  C106     1.0000 0.63396  0.80548  0.92660  Biso   1.000  C
  O1       1.0000 0.92425  0.92317  0.06686  Biso   1.000  O
  O2       1.0000 0.09594  0.92313  0.89517  Biso   1.000  O
  O3       1.0000 0.09599  0.75144  0.06686  Biso   1.000  O
  O4       1.0000 0.09594  0.92312  0.06691  Biso   1.000  O
  O5       1.0000 0.68642  0.33264  0.48565  Biso   1.000  O
  O6       1.0000 0.51474  0.33268  0.65734  Biso   1.000  O
  O7       1.0000 0.51469  0.50437  0.48565  Biso   1.000  O
  O8       1.0000 0.51474  0.33268  0.48560  Biso   1.000  O
  O9       1.0000 0.76671  0.10194  0.86781  Biso   1.000  O
  O10      1.0000 0.76570  0.72390  0.25412  Biso   1.000  O
  O11      1.0000 0.76689  0.10255  0.25313  Biso   1.000  O
  O12      1.0000 0.89689  0.10095  0.73762  Biso   1.000  O
  O13      1.0000 0.28321  0.10294  0.73662  Biso   1.000  O
  O14      1.0000 0.28222  0.72408  0.73781  Biso   1.000  O
  O15      1.0000 0.28399  0.58465  0.25391  Biso   1.000  O
  O16      1.0000 0.89668  0.58365  0.25590  Biso   1.000  O
  O17      1.0000 0.28459  0.58483  0.86780  Biso   1.000  O
  O18      1.0000 0.28299  0.72410  0.25490  Biso   1.000  O
  O19      1.0000 0.28499  0.10115  0.86760  Biso   1.000  O
  O20      1.0000 0.89688  0.10018  0.25551  Biso   1.000  O
  O21      1.0000 0.84397  0.15387  0.68470  Biso   1.000  O
  O22      1.0000 0.84496  0.53193  0.30762  Biso   1.000  O
  O23      1.0000 0.84378  0.15328  0.30861  Biso   1.000  O
  O24      1.0000 0.71378  0.15486  0.81488  Biso   1.000  O
  O25      1.0000 0.33671  0.15287  0.81588  Biso   1.000  O
  O26      1.0000 0.33770  0.53173  0.81470  Biso   1.000  O
  O27      1.0000 0.33592  0.66191  0.30783  Biso   1.000  O
  O28      1.0000 0.71399  0.66291  0.30584  Biso   1.000  O
  O29      1.0000 0.33532  0.66171  0.68471  Biso   1.000  O
  O30      1.0000 0.33691  0.53173  0.30684  Biso   1.000  O
  O31      1.0000 0.33492  0.15466  0.68490  Biso   1.000  O
  O32      1.0000 0.71379  0.15566  0.30623  Biso   1.000  O
  O33      1.0000 0.85864  0.07460  0.82956  Biso   1.000  O
  O34      1.0000 0.91678  0.01646  0.88770  Biso   1.000  O
  O35      1.0000 0.25665  0.68585  0.22757  Biso   1.000  O
  O36      1.0000 0.18928  0.74397  0.16020  Biso   1.000  O
  O37      1.0000 0.75203  0.18121  0.72295  Biso   1.000  O
  O38      1.0000 0.69390  0.23934  0.66481  Biso   1.000  O
  O39      1.0000 0.36326  0.56998  0.33417  Biso   1.000  O
  O40      1.0000 0.42140  0.51184  0.39231  Biso   1.000  O
  O41      1.0000 0.85844  0.07481  0.22776  Biso   1.000  O
  O42      1.0000 0.91631  0.01693  0.16067  Biso   1.000  O
  O43      1.0000 0.25685  0.67637  0.82936  Biso   1.000  O
  O44      1.0000 0.18975  0.74350  0.88722  Biso   1.000  O
  O45      1.0000 0.75223  0.18102  0.33397  Biso   1.000  O
  O46      1.0000 0.69437  0.23887  0.39184  Biso   1.000  O
  O47      1.0000 0.36306  0.57017  0.72315  Biso   1.000  O
  O48      1.0000 0.42092  0.51231  0.66529  Biso   1.000  O
  O49      1.0000 0.85824  0.67619  0.22796  Biso   1.000  O
  O50      1.0000 0.91611  0.74329  0.16087  Biso   1.000  O
  O51      1.0000 0.25705  0.07500  0.82916  Biso   1.000  O
  O52      1.0000 0.18995  0.01714  0.88702  Biso   1.000  O
  O53      1.0000 0.75243  0.57037  0.33378  Biso   1.000  O
  O54      1.0000 0.69457  0.51251  0.39164  Biso   1.000  O
  O55      1.0000 0.36286  0.18081  0.72335  Biso   1.000  O
  O56      1.0000 0.42072  0.23867  0.66549  Biso   1.000  O
  O57      1.0000 0.87652  0.99407  0.97116  Biso   1.000  O
  O58      1.0000 0.87701  0.99599  0.13780  Biso   1.000  O
  O59      1.0000 0.87616  0.82784  0.13816  Biso   1.000  O
  O60      1.0000 0.00024  0.99566  0.84743  Biso   1.000  O
  O61      1.0000 0.16689  0.82660  0.84793  Biso   1.000  O
  O62      1.0000 0.16724  0.99524  0.84707  Biso   1.000  O
  O63      1.0000 0.16689  0.70370  0.13939  Biso   1.000  O
  O64      1.0000 0.16881  0.70420  0.97033  Biso   1.000  O
  O65      1.0000 0.00066  0.70335  0.13897  Biso   1.000  O
  O66      1.0000 0.16847  0.82743  0.13780  Biso   1.000  O
  O67      1.0000 0.99941  0.99407  0.13973  Biso   1.000  O
  O68      1.0000 0.16806  0.99443  0.97157  Biso   1.000  O
  O69      1.0000 0.73416  0.26174  0.58135  Biso   1.000  O
  O70      1.0000 0.73366  0.25982  0.41470  Biso   1.000  O
  O71      1.0000 0.73452  0.42797  0.41435  Biso   1.000  O
  O72      1.0000 0.61043  0.26015  0.70508  Biso   1.000  O
  O73      1.0000 0.44379  0.42921  0.70458  Biso   1.000  O
  O74      1.0000 0.44343  0.26056  0.70543  Biso   1.000  O
  O75      1.0000 0.44379  0.55210  0.41312  Biso   1.000  O
  O76      1.0000 0.44187  0.55160  0.58218  Biso   1.000  O
  O77      1.0000 0.61002  0.55246  0.41353  Biso   1.000  O
  O78      1.0000 0.44220  0.42838  0.41470  Biso   1.000  O
  O79      1.0000 0.61126  0.26174  0.41278  Biso   1.000  O
  O80      1.0000 0.44262  0.26138  0.58093  Biso   1.000  O
  O81      1.0000 0.05303  0.88022  0.02395  Biso   1.000  O
  O82      1.0000 0.55765  0.37559  0.52856  Biso   1.000  O
  O83      1.0000 0.73382  0.79979  0.23138  Biso   1.000  O
  O84      1.0000 0.97257  0.55177  0.23463  Biso   1.000  O
  O85      1.0000 0.87685  0.45604  0.33036  Biso   1.000  O
  O86      1.0000 0.63809  0.70406  0.32711  Biso   1.000  O
  O87      1.0000 0.26358  0.55294  0.94368  Biso   1.000  O
  O88      1.0000 0.36068  0.45584  0.84658  Biso   1.000  O
  O89      1.0000 0.73501  0.08154  0.23014  Biso   1.000  O
  O90      1.0000 0.63791  0.17864  0.32725  Biso   1.000  O
  O91      1.0000 0.97279  0.07854  0.70573  Biso   1.000  O
  O92      1.0000 0.26047  0.08167  0.70474  Biso   1.000  O
  O93      1.0000 0.35932  0.45584  0.32843  Biso   1.000  O
  O94      1.0000 0.35619  0.17739  0.60901  Biso   1.000  O
  O95      1.0000 0.25923  0.79996  0.70593  Biso   1.000  O
  O96      1.0000 0.35633  0.70286  0.60882  Biso   1.000  O
  O97      1.0000 0.97276  0.07719  0.23449  Biso   1.000  O
  O98      1.0000 0.87566  0.17429  0.33160  Biso   1.000  O
  O99      1.0000 0.35751  0.70307  0.33024  Biso   1.000  O
  O100     1.0000 0.26372  0.07841  0.94350  Biso   1.000  O
  O101     1.0000 0.35945  0.17414  0.84777  Biso   1.000  O
  O102     1.0000 0.26058  0.79999  0.23331  Biso   1.000  O
  O103     1.0000 0.63789  0.17727  0.84678  Biso   1.000  O
  O104     1.0000 0.73482  0.08035  0.94370  Biso   1.000  O
  O105     1.0000 0.87586  0.17546  0.60880  Biso   1.000  O
  O106     1.0000 0.26240  0.55276  0.23150  Biso   1.000  O
