data_image0
_cell_length_a       18.3083
_cell_length_b       18.3083
_cell_length_c       18.3083
_cell_angle_alpha    60
_cell_angle_beta     60
_cell_angle_gamma    60

loop_
  _atom_site_label
  _atom_site_occupancy
  _atom_site_fract_x
  _atom_site_fract_y
  _atom_site_fract_z
  _atom_site_thermal_displace_type
  _atom_site_B_iso_or_equiv
  _atom_site_type_symbol
  Zn1      1.0000 0.29342  0.29341  0.11976  Biso   1.000  Zn
  Zn2      1.0000 0.29342  0.29341  0.29341  Biso   1.000  Zn
  Zn3      1.0000 0.11977  0.29341  0.29341  Biso   1.000  Zn
  Zn4      1.0000 0.29342  0.11976  0.29341  Biso   1.000  Zn
  Zn5      1.0000 0.70658  0.70659  0.88024  Biso   1.000  Zn
  Zn6      1.0000 0.70658  0.70659  0.70659  Biso   1.000  Zn
  Zn7      1.0000 0.70658  0.88024  0.70659  Biso   1.000  Zn
  Zn8      1.0000 0.88023  0.70659  0.70659  Biso   1.000  Zn
  H1       1.0000 0.45480  0.45480  0.93480  Biso   1.000  H
  H2       1.0000 0.45480  0.45480  0.15560  Biso   1.000  H
  H3       1.0000 0.93480  0.15560  0.45480  Biso   1.000  H
  H4       1.0000 0.15560  0.93480  0.45480  Biso   1.000  H
  H5       1.0000 0.45480  0.93480  0.15560  Biso   1.000  H
  H6       1.0000 0.45480  0.15560  0.93480  Biso   1.000  H
  H7       1.0000 0.93480  0.45480  0.45480  Biso   1.000  H
  H8       1.0000 0.15560  0.45480  0.45480  Biso   1.000  H
  H9       1.0000 0.45480  0.15560  0.45480  Biso   1.000  H
  H10      1.0000 0.45480  0.93480  0.45480  Biso   1.000  H
  H11      1.0000 0.93480  0.45480  0.15560  Biso   1.000  H
  H12      1.0000 0.15560  0.45480  0.93480  Biso   1.000  H
  H13      1.0000 0.54520  0.54520  0.06520  Biso   1.000  H
  H14      1.0000 0.54520  0.54520  0.84440  Biso   1.000  H
  H15      1.0000 0.84440  0.06520  0.54520  Biso   1.000  H
  H16      1.0000 0.06520  0.84440  0.54520  Biso   1.000  H
  H17      1.0000 0.06520  0.54520  0.84440  Biso   1.000  H
  H18      1.0000 0.84440  0.54520  0.06520  Biso   1.000  H
  H19      1.0000 0.54520  0.06520  0.54520  Biso   1.000  H
  H20      1.0000 0.54520  0.84440  0.54520  Biso   1.000  H
  H21      1.0000 0.84440  0.54520  0.54520  Biso   1.000  H
  H22      1.0000 0.06520  0.54520  0.54520  Biso   1.000  H
  H23      1.0000 0.54520  0.06520  0.84440  Biso   1.000  H
  H24      1.0000 0.54520  0.84440  0.06520  Biso   1.000  H
  C1       1.0000 0.47317  0.47317  0.96131  Biso   1.000  C
  C2       1.0000 0.47317  0.47317  0.09235  Biso   1.000  C
  C3       1.0000 0.96131  0.09235  0.47317  Biso   1.000  C
  C4       1.0000 0.09235  0.96131  0.47317  Biso   1.000  C
  C5       1.0000 0.47317  0.96131  0.09235  Biso   1.000  C
  C6       1.0000 0.47317  0.09235  0.96131  Biso   1.000  C
  C7       1.0000 0.96131  0.47317  0.47317  Biso   1.000  C
  C8       1.0000 0.09235  0.47317  0.47317  Biso   1.000  C
  C9       1.0000 0.47317  0.09235  0.47317  Biso   1.000  C
  C10      1.0000 0.47317  0.96131  0.47317  Biso   1.000  C
  C11      1.0000 0.96131  0.47317  0.09235  Biso   1.000  C
  C12      1.0000 0.09235  0.47317  0.96131  Biso   1.000  C
  C13      1.0000 0.52683  0.52683  0.03869  Biso   1.000  C
  C14      1.0000 0.52683  0.52683  0.90765  Biso   1.000  C
  C15      1.0000 0.90765  0.03869  0.52683  Biso   1.000  C
  C16      1.0000 0.03869  0.90765  0.52683  Biso   1.000  C
  C17      1.0000 0.03869  0.52683  0.90765  Biso   1.000  C
  C18      1.0000 0.90765  0.52683  0.03869  Biso   1.000  C
  C19      1.0000 0.52683  0.03869  0.52683  Biso   1.000  C
  C20      1.0000 0.52683  0.90765  0.52683  Biso   1.000  C
  C21      1.0000 0.90765  0.52683  0.52683  Biso   1.000  C
  C22      1.0000 0.03869  0.52683  0.52683  Biso   1.000  C
  C23      1.0000 0.52683  0.03869  0.90765  Biso   1.000  C
  C24      1.0000 0.52683  0.90765  0.03869  Biso   1.000  C
  C25      1.0000 0.38843  0.38843  0.11157  Biso   1.000  C
  C26      1.0000 0.44641  0.44641  0.05359  Biso   1.000  C
  C27      1.0000 0.11157  0.11157  0.38843  Biso   1.000  C
  C28      1.0000 0.05359  0.05359  0.44641  Biso   1.000  C
  C29      1.0000 0.38843  0.11157  0.11157  Biso   1.000  C
  C30      1.0000 0.44641  0.05359  0.05359  Biso   1.000  C
  C31      1.0000 0.11157  0.38843  0.38843  Biso   1.000  C
  C32      1.0000 0.05359  0.44641  0.44641  Biso   1.000  C
  C33      1.0000 0.38843  0.11157  0.38843  Biso   1.000  C
  C34      1.0000 0.44641  0.05359  0.44641  Biso   1.000  C
  C35      1.0000 0.11157  0.38843  0.11157  Biso   1.000  C
  C36      1.0000 0.05359  0.44641  0.05359  Biso   1.000  C
  C37      1.0000 0.61157  0.61157  0.88843  Biso   1.000  C
  C38      1.0000 0.55359  0.55359  0.94641  Biso   1.000  C
  C39      1.0000 0.88843  0.88843  0.61157  Biso   1.000  C
  C40      1.0000 0.94641  0.94641  0.55359  Biso   1.000  C
  C41      1.0000 0.88843  0.61157  0.88843  Biso   1.000  C
  C42      1.0000 0.94641  0.55359  0.94641  Biso   1.000  C
  C43      1.0000 0.61157  0.88843  0.61157  Biso   1.000  C
  C44      1.0000 0.55359  0.94641  0.55359  Biso   1.000  C
  C45      1.0000 0.88843  0.61157  0.61157  Biso   1.000  C
  C46      1.0000 0.94641  0.55359  0.55359  Biso   1.000  C
  C47      1.0000 0.61157  0.88843  0.88843  Biso   1.000  C
  C48      1.0000 0.55359  0.94641  0.94641  Biso   1.000  C
  O1       1.0000 0.25000  0.25000  0.25000  Biso   1.000  O
  O2       1.0000 0.75000  0.75000  0.75000  Biso   1.000  O
  O3       1.0000 0.36629  0.36629  0.07237  Biso   1.000  O
  O4       1.0000 0.36629  0.36629  0.19505  Biso   1.000  O
  O5       1.0000 0.07237  0.19505  0.36629  Biso   1.000  O
  O6       1.0000 0.19505  0.07237  0.36629  Biso   1.000  O
  O7       1.0000 0.36629  0.07237  0.19505  Biso   1.000  O
  O8       1.0000 0.36629  0.19505  0.07237  Biso   1.000  O
  O9       1.0000 0.07237  0.36629  0.36629  Biso   1.000  O
  O10      1.0000 0.19505  0.36629  0.36629  Biso   1.000  O
  O11      1.0000 0.36629  0.19505  0.36629  Biso   1.000  O
  O12      1.0000 0.36629  0.07237  0.36629  Biso   1.000  O
  O13      1.0000 0.07237  0.36629  0.19505  Biso   1.000  O
  O14      1.0000 0.19505  0.36629  0.07237  Biso   1.000  O
  O15      1.0000 0.63371  0.63371  0.92763  Biso   1.000  O
  O16      1.0000 0.63371  0.63371  0.80495  Biso   1.000  O
  O17      1.0000 0.80495  0.92763  0.63371  Biso   1.000  O
  O18      1.0000 0.92763  0.80495  0.63371  Biso   1.000  O
  O19      1.0000 0.92763  0.63371  0.80495  Biso   1.000  O
  O20      1.0000 0.80495  0.63371  0.92763  Biso   1.000  O
  O21      1.0000 0.63371  0.92763  0.63371  Biso   1.000  O
  O22      1.0000 0.63371  0.80495  0.63371  Biso   1.000  O
  O23      1.0000 0.80495  0.63371  0.63371  Biso   1.000  O
  O24      1.0000 0.92763  0.63371  0.63371  Biso   1.000  O
  O25      1.0000 0.63371  0.92763  0.80495  Biso   1.000  O
  O26      1.0000 0.63371  0.80495  0.92763  Biso   1.000  O
  Zn9      1.0000 0.97873  0.59485  0.26339  Biso   1.000  Zn
  Zn10     1.0000 0.97869  0.59489  0.43369  Biso   1.000  Zn
  Zn11     1.0000 0.97873  0.76520  0.26339  Biso   1.000  Zn
  Zn12     1.0000 0.14904  0.59490  0.26334  Biso   1.000  Zn
  Zn13     1.0000 0.57248  0.18868  0.83991  Biso   1.000  Zn
  Zn14     1.0000 0.57252  0.18864  0.66960  Biso   1.000  Zn
  Zn15     1.0000 0.57248  0.01833  0.83991  Biso   1.000  Zn
  Zn16     1.0000 0.40217  0.18863  0.83996  Biso   1.000  Zn
  C49      1.0000 0.80235  0.41753  0.46083  Biso   1.000  C
  C50      1.0000 0.81760  0.79252  0.06958  Biso   1.000  C
  C51      1.0000 0.19341  0.41691  0.07056  Biso   1.000  C
  C52      1.0000 0.80136  0.41851  0.58997  Biso   1.000  C
  C53      1.0000 0.19360  0.41653  0.59096  Biso   1.000  C
  C54      1.0000 0.81799  0.79233  0.58978  Biso   1.000  C
  C55      1.0000 0.19340  0.93870  0.06978  Biso   1.000  C
  C56      1.0000 0.80214  0.93969  0.06781  Biso   1.000  C
  C57      1.0000 0.80312  0.93852  0.46084  Biso   1.000  C
  C58      1.0000 0.33976  0.79231  0.06880  Biso   1.000  C
  C59      1.0000 0.32353  0.41830  0.46104  Biso   1.000  C
  C60      1.0000 0.32235  0.41927  0.06820  Biso   1.000  C
  C61      1.0000 0.74886  0.36601  0.64247  Biso   1.000  C
  C62      1.0000 0.75084  0.99099  0.01651  Biso   1.000  C
  C63      1.0000 0.37503  0.36660  0.01552  Biso   1.000  C
  C64      1.0000 0.74985  0.36503  0.51333  Biso   1.000  C
  C65      1.0000 0.37483  0.36700  0.51234  Biso   1.000  C
  C66      1.0000 0.75045  0.99120  0.51352  Biso   1.000  C
  C67      1.0000 0.37504  0.86206  0.01630  Biso   1.000  C
  C68      1.0000 0.74907  0.86107  0.01827  Biso   1.000  C
  C69      1.0000 0.74809  0.86226  0.64246  Biso   1.000  C
  C70      1.0000 0.24590  0.99120  0.01728  Biso   1.000  C
  C71      1.0000 0.24491  0.36523  0.64226  Biso   1.000  C
  C72      1.0000 0.24609  0.36424  0.01788  Biso   1.000  C
  C73      1.0000 0.82848  0.44464  0.49877  Biso   1.000  C
  C74      1.0000 0.88615  0.50231  0.44110  Biso   1.000  C
  C75      1.0000 0.24857  0.83026  0.09591  Biso   1.000  C
  C76      1.0000 0.15645  0.77261  0.17080  Biso   1.000  C
  C77      1.0000 0.72273  0.33889  0.60452  Biso   1.000  C
  C78      1.0000 0.66506  0.28122  0.66219  Biso   1.000  C
  C79      1.0000 0.33709  0.95325  0.99017  Biso   1.000  C
  C80      1.0000 0.39476  0.01092  0.93250  Biso   1.000  C
  C81      1.0000 0.23154  0.44443  0.09572  Biso   1.000  C
  C82      1.0000 0.15692  0.50184  0.17033  Biso   1.000  C
  C83      1.0000 0.82828  0.84772  0.49897  Biso   1.000  C
  C84      1.0000 0.88568  0.77307  0.44158  Biso   1.000  C
  C85      1.0000 0.33690  0.33908  0.99036  Biso   1.000  C
  C86      1.0000 0.39429  0.28169  0.93297  Biso   1.000  C
  C87      1.0000 0.72293  0.95307  0.60433  Biso   1.000  C
  C88      1.0000 0.66554  0.01046  0.66172  Biso   1.000  C
  C89      1.0000 0.82809  0.84790  0.09552  Biso   1.000  C
  C90      1.0000 0.88548  0.77328  0.17013  Biso   1.000  C
  C91      1.0000 0.23174  0.44425  0.49917  Biso   1.000  C
  C92      1.0000 0.15712  0.50164  0.44177  Biso   1.000  C
  C93      1.0000 0.72313  0.95286  0.99056  Biso   1.000  C
  C94      1.0000 0.66573  0.01025  0.93317  Biso   1.000  C
  C95      1.0000 0.33670  0.33929  0.60413  Biso   1.000  C
  C96      1.0000 0.39409  0.28189  0.66152  Biso   1.000  C
  O27      1.0000 0.90679  0.52452  0.35831  Biso   1.000  O
  O28      1.0000 0.07449  0.52262  0.19301  Biso   1.000  O
  O29      1.0000 0.90720  0.68941  0.19266  Biso   1.000  O
  O30      1.0000 0.90836  0.52294  0.48104  Biso   1.000  O
  O31      1.0000 0.90645  0.69064  0.48055  Biso   1.000  O
  O32      1.0000 0.07325  0.52336  0.48140  Biso   1.000  O
  O33      1.0000 0.07366  0.81255  0.19144  Biso   1.000  O
  O34      1.0000 0.90836  0.81205  0.35914  Biso   1.000  O
  O35      1.0000 0.90800  0.81290  0.19185  Biso   1.000  O
  O36      1.0000 0.19639  0.68982  0.19301  Biso   1.000  O
  O37      1.0000 0.19590  0.52452  0.19110  Biso   1.000  O
  O38      1.0000 0.19674  0.52417  0.35790  Biso   1.000  O
  O39      1.0000 0.64443  0.25901  0.74498  Biso   1.000  O
  O40      1.0000 0.47673  0.26091  0.91029  Biso   1.000  O
  O41      1.0000 0.64401  0.09412  0.91064  Biso   1.000  O
  O42      1.0000 0.64285  0.26059  0.62225  Biso   1.000  O
  O43      1.0000 0.64476  0.09289  0.62274  Biso   1.000  O
  O44      1.0000 0.47796  0.26017  0.62190  Biso   1.000  O
  O45      1.0000 0.47755  0.97098  0.91186  Biso   1.000  O
  O46      1.0000 0.64285  0.97148  0.74416  Biso   1.000  O
  O47      1.0000 0.64321  0.97063  0.91145  Biso   1.000  O
  O48      1.0000 0.35482  0.09371  0.91029  Biso   1.000  O
  O49      1.0000 0.35531  0.25901  0.91219  Biso   1.000  O
  O50      1.0000 0.35447  0.25937  0.74539  Biso   1.000  O
  O51      1.0000 0.02130  0.63746  0.30595  Biso   1.000  O
  O52      1.0000 0.52991  0.14607  0.79734  Biso   1.000  O
  H25      1.0000 0.83870  0.71724  0.09213  Biso   1.000  H
  H26      1.0000 0.82470  0.97131  0.08891  Biso   1.000  H
  H27      1.0000 0.72974  0.06627  0.99395  Biso   1.000  H
  H28      1.0000 0.74374  0.81220  0.99717  Biso   1.000  H
  H29      1.0000 0.82592  0.97015  0.38557  Biso   1.000  H
  H30      1.0000 0.72960  0.06647  0.48189  Biso   1.000  H
  H31      1.0000 0.11814  0.43776  0.09336  Biso   1.000  H
  H32      1.0000 0.21446  0.34144  0.99704  Biso   1.000  H
  H33      1.0000 0.82278  0.44073  0.62160  Biso   1.000  H
  H34      1.0000 0.11832  0.43763  0.62259  Biso   1.000  H
  H35      1.0000 0.21427  0.06648  0.99587  Biso   1.000  H
  H36      1.0000 0.21328  0.34267  0.71754  Biso   1.000  H
  H37      1.0000 0.83883  0.71706  0.62141  Biso   1.000  H
  H38      1.0000 0.74251  0.81338  0.71773  Biso   1.000  H
  H39      1.0000 0.35398  0.44207  0.08905  Biso   1.000  H
  H40      1.0000 0.45030  0.34575  0.99272  Biso   1.000  H
  H41      1.0000 0.46754  0.81318  0.99407  Biso   1.000  H
  H42      1.0000 0.35515  0.44086  0.38575  Biso   1.000  H
  H43      1.0000 0.45011  0.34590  0.48071  Biso   1.000  H
  H44      1.0000 0.37140  0.71703  0.09021  Biso   1.000  H
  H45      1.0000 0.72843  0.34280  0.48169  Biso   1.000  H
  H46      1.0000 0.82458  0.43894  0.38555  Biso   1.000  H
  H47      1.0000 0.72663  0.34459  0.71775  Biso   1.000  H
  H48      1.0000 0.11812  0.97033  0.09201  Biso   1.000  H
