data_image0
_cell_length_a       18.2789
_cell_length_b       18.2789
_cell_length_c       18.2789
_cell_angle_alpha    60
_cell_angle_beta     60
_cell_angle_gamma    60

loop_
  _atom_site_label
  _atom_site_occupancy
  _atom_site_fract_x
  _atom_site_fract_y
  _atom_site_fract_z
  _atom_site_thermal_displace_type
  _atom_site_B_iso_or_equiv
  _atom_site_type_symbol
  C1       1.0000 0.29348  0.29347  0.11958  Biso   1.000  C
  C2       1.0000 0.29348  0.29347  0.29347  Biso   1.000  C
  C3       1.0000 0.11959  0.29347  0.29347  Biso   1.000  C
  C4       1.0000 0.29348  0.11958  0.29347  Biso   1.000  C
  C5       1.0000 0.70652  0.70653  0.88042  Biso   1.000  C
  C6       1.0000 0.70652  0.70653  0.70653  Biso   1.000  C
  C7       1.0000 0.70652  0.88042  0.70653  Biso   1.000  C
  C8       1.0000 0.88041  0.70653  0.70653  Biso   1.000  C
  C9       1.0000 0.45520  0.45520  0.93520  Biso   1.000  C
  C10      1.0000 0.45520  0.45520  0.15440  Biso   1.000  C
  C11      1.0000 0.93520  0.15440  0.45520  Biso   1.000  C
  C12      1.0000 0.15440  0.93520  0.45520  Biso   1.000  C
  C13      1.0000 0.45520  0.93520  0.15440  Biso   1.000  C
  C14      1.0000 0.45520  0.15440  0.93520  Biso   1.000  C
  C15      1.0000 0.93520  0.45520  0.45520  Biso   1.000  C
  C16      1.0000 0.15440  0.45520  0.45520  Biso   1.000  C
  C17      1.0000 0.45520  0.15440  0.45520  Biso   1.000  C
  C18      1.0000 0.45520  0.93520  0.45520  Biso   1.000  C
  C19      1.0000 0.93520  0.45520  0.15440  Biso   1.000  C
  C20      1.0000 0.15440  0.45520  0.93520  Biso   1.000  C
  C21      1.0000 0.54480  0.54480  0.06480  Biso   1.000  C
  C22      1.0000 0.54480  0.54480  0.84560  Biso   1.000  C
  C23      1.0000 0.84560  0.06480  0.54480  Biso   1.000  C
  C24      1.0000 0.06480  0.84560  0.54480  Biso   1.000  C
  C25      1.0000 0.06480  0.54480  0.84560  Biso   1.000  C
  C26      1.0000 0.84560  0.54480  0.06480  Biso   1.000  C
  C27      1.0000 0.54480  0.06480  0.54480  Biso   1.000  C
  C28      1.0000 0.54480  0.84560  0.54480  Biso   1.000  C
  C29      1.0000 0.84560  0.54480  0.54480  Biso   1.000  C
  C30      1.0000 0.06480  0.54480  0.54480  Biso   1.000  C
  C31      1.0000 0.54480  0.06480  0.84560  Biso   1.000  C
  C32      1.0000 0.54480  0.84560  0.06480  Biso   1.000  C
  C33      1.0000 0.47338  0.47338  0.96214  Biso   1.000  C
  C34      1.0000 0.47338  0.47338  0.09110  Biso   1.000  C
  C35      1.0000 0.96214  0.09110  0.47338  Biso   1.000  C
  C36      1.0000 0.09110  0.96214  0.47338  Biso   1.000  C
  C37      1.0000 0.47338  0.96214  0.09110  Biso   1.000  C
  C38      1.0000 0.47338  0.09110  0.96214  Biso   1.000  C
  C39      1.0000 0.96214  0.47338  0.47338  Biso   1.000  C
  C40      1.0000 0.09110  0.47338  0.47338  Biso   1.000  C
  C41      1.0000 0.47338  0.09110  0.47338  Biso   1.000  C
  C42      1.0000 0.47338  0.96214  0.47338  Biso   1.000  C
  C43      1.0000 0.96214  0.47338  0.09110  Biso   1.000  C
  C44      1.0000 0.09110  0.47338  0.96214  Biso   1.000  C
  C45      1.0000 0.52662  0.52662  0.03786  Biso   1.000  C
  C46      1.0000 0.52662  0.52662  0.90890  Biso   1.000  C
  C47      1.0000 0.90890  0.03786  0.52662  Biso   1.000  C
  C48      1.0000 0.03786  0.90890  0.52662  Biso   1.000  C
  C49      1.0000 0.03786  0.52662  0.90890  Biso   1.000  C
  C50      1.0000 0.90890  0.52662  0.03786  Biso   1.000  C
  C51      1.0000 0.52662  0.03786  0.52662  Biso   1.000  C
  C52      1.0000 0.52662  0.90890  0.52662  Biso   1.000  C
  C53      1.0000 0.90890  0.52662  0.52662  Biso   1.000  C
  C54      1.0000 0.03786  0.52662  0.52662  Biso   1.000  C
  C55      1.0000 0.52662  0.03786  0.90890  Biso   1.000  C
  C56      1.0000 0.52662  0.90890  0.03786  Biso   1.000  C
  C57      1.0000 0.38853  0.38853  0.11147  Biso   1.000  C
  C58      1.0000 0.44615  0.44615  0.05385  Biso   1.000  C
  C59      1.0000 0.11147  0.11147  0.38853  Biso   1.000  C
  C60      1.0000 0.05385  0.05385  0.44615  Biso   1.000  C
  C61      1.0000 0.38853  0.11147  0.11147  Biso   1.000  C
  C62      1.0000 0.44615  0.05385  0.05385  Biso   1.000  C
  C63      1.0000 0.11147  0.38853  0.38853  Biso   1.000  C
  C64      1.0000 0.05385  0.44615  0.44615  Biso   1.000  C
  C65      1.0000 0.38853  0.11147  0.38853  Biso   1.000  C
  C66      1.0000 0.44615  0.05385  0.44615  Biso   1.000  C
  C67      1.0000 0.11147  0.38853  0.11147  Biso   1.000  C
  C68      1.0000 0.05385  0.44615  0.05385  Biso   1.000  C
  C69      1.0000 0.61147  0.61147  0.88853  Biso   1.000  C
  C70      1.0000 0.55385  0.55385  0.94615  Biso   1.000  C
  C71      1.0000 0.88853  0.88853  0.61147  Biso   1.000  C
  C72      1.0000 0.94615  0.94615  0.55385  Biso   1.000  C
  C73      1.0000 0.88853  0.61147  0.88853  Biso   1.000  C
  C74      1.0000 0.94615  0.55385  0.94615  Biso   1.000  C
  C75      1.0000 0.61147  0.88853  0.61147  Biso   1.000  C
  C76      1.0000 0.55385  0.94615  0.55385  Biso   1.000  C
  C77      1.0000 0.88853  0.61147  0.61147  Biso   1.000  C
  C78      1.0000 0.94615  0.55385  0.55385  Biso   1.000  C
  C79      1.0000 0.61147  0.88853  0.88853  Biso   1.000  C
  C80      1.0000 0.55385  0.94615  0.94615  Biso   1.000  C
  C81      1.0000 0.25000  0.25000  0.25000  Biso   1.000  C
  C82      1.0000 0.75000  0.75000  0.75000  Biso   1.000  C
  C83      1.0000 0.36624  0.36624  0.07286  Biso   1.000  C
  C84      1.0000 0.36624  0.36624  0.19466  Biso   1.000  C
  C85      1.0000 0.07286  0.19466  0.36624  Biso   1.000  C
  C86      1.0000 0.19466  0.07286  0.36624  Biso   1.000  C
  C87      1.0000 0.36624  0.07286  0.19466  Biso   1.000  C
  C88      1.0000 0.36624  0.19466  0.07286  Biso   1.000  C
  C89      1.0000 0.07286  0.36624  0.36624  Biso   1.000  C
  C90      1.0000 0.19466  0.36624  0.36624  Biso   1.000  C
  C91      1.0000 0.36624  0.19466  0.36624  Biso   1.000  C
  C92      1.0000 0.36624  0.07286  0.36624  Biso   1.000  C
  C93      1.0000 0.07286  0.36624  0.19466  Biso   1.000  C
  C94      1.0000 0.19466  0.36624  0.07286  Biso   1.000  C
  C95      1.0000 0.63376  0.63376  0.92714  Biso   1.000  C
  C96      1.0000 0.63376  0.63376  0.80534  Biso   1.000  C
  C97      1.0000 0.80534  0.92714  0.63376  Biso   1.000  C
  C98      1.0000 0.92714  0.80534  0.63376  Biso   1.000  C
  C99      1.0000 0.92714  0.63376  0.80534  Biso   1.000  C
  C100     1.0000 0.80534  0.63376  0.92714  Biso   1.000  C
  C101     1.0000 0.63376  0.92714  0.63376  Biso   1.000  C
  C102     1.0000 0.63376  0.80534  0.63376  Biso   1.000  C
  C103     1.0000 0.80534  0.63376  0.63376  Biso   1.000  C
  C104     1.0000 0.92714  0.63376  0.63376  Biso   1.000  C
  C105     1.0000 0.63376  0.92714  0.80534  Biso   1.000  C
  C106     1.0000 0.63376  0.80534  0.92714  Biso   1.000  C
  O1       1.0000 0.98510  0.59354  0.26102  Biso   1.000  O
  O2       1.0000 0.98506  0.59359  0.43187  Biso   1.000  O
  O3       1.0000 0.98510  0.76444  0.26102  Biso   1.000  O
  O4       1.0000 0.15596  0.59359  0.26097  Biso   1.000  O
  O5       1.0000 0.57754  0.18607  0.83939  Biso   1.000  O
  O6       1.0000 0.57759  0.18603  0.66854  Biso   1.000  O
  O7       1.0000 0.57754  0.01517  0.83939  Biso   1.000  O
  O8       1.0000 0.40669  0.18602  0.83944  Biso   1.000  O
  O9       1.0000 0.80815  0.41565  0.45909  Biso   1.000  O
  O10      1.0000 0.82023  0.79185  0.06980  Biso   1.000  O
  O11      1.0000 0.19725  0.41504  0.07079  Biso   1.000  O
  O12      1.0000 0.80716  0.41663  0.58865  Biso   1.000  O
  O13      1.0000 0.19745  0.41465  0.58964  Biso   1.000  O
  O14      1.0000 0.82062  0.79166  0.58846  Biso   1.000  O
  O15      1.0000 0.19724  0.93528  0.07001  Biso   1.000  O
  O16      1.0000 0.80795  0.93628  0.06803  Biso   1.000  O
  O17      1.0000 0.80893  0.93511  0.45910  Biso   1.000  O
  O18      1.0000 0.34085  0.79164  0.06902  Biso   1.000  O
  O19      1.0000 0.32779  0.41643  0.45930  Biso   1.000  O
  O20      1.0000 0.32661  0.41740  0.06842  Biso   1.000  O
  O21      1.0000 0.75450  0.36396  0.64132  Biso   1.000  O
  O22      1.0000 0.75648  0.98774  0.01656  Biso   1.000  O
  O23      1.0000 0.37946  0.36456  0.01557  Biso   1.000  O
  O24      1.0000 0.75548  0.36298  0.51176  Biso   1.000  O
  O25      1.0000 0.37925  0.36496  0.51077  Biso   1.000  O
  O26      1.0000 0.75608  0.98795  0.51195  Biso   1.000  O
  O27      1.0000 0.37946  0.85840  0.01635  Biso   1.000  O
  O28      1.0000 0.75470  0.85740  0.01833  Biso   1.000  O
  O29      1.0000 0.75372  0.85860  0.64131  Biso   1.000  O
  O30      1.0000 0.24991  0.98795  0.01734  Biso   1.000  O
  O31      1.0000 0.24891  0.36319  0.64111  Biso   1.000  O
  O32      1.0000 0.25010  0.36219  0.01794  Biso   1.000  O
  O33      1.0000 0.83437  0.44285  0.49716  Biso   1.000  O
  O34      1.0000 0.89222  0.50071  0.43930  Biso   1.000  O
  O35      1.0000 0.24937  0.82971  0.09622  Biso   1.000  O
  O36      1.0000 0.16339  0.77188  0.16813  Biso   1.000  O
  O37      1.0000 0.72828  0.33676  0.60325  Biso   1.000  O
  O38      1.0000 0.67042  0.27891  0.66110  Biso   1.000  O
  O39      1.0000 0.34140  0.94988  0.99014  Biso   1.000  O
  O40      1.0000 0.39925  0.00774  0.93228  Biso   1.000  O
  O41      1.0000 0.23551  0.44264  0.09603  Biso   1.000  O
  O42      1.0000 0.16386  0.50024  0.16766  Biso   1.000  O
  O43      1.0000 0.83417  0.84401  0.49736  Biso   1.000  O
  O44      1.0000 0.89175  0.77234  0.43978  Biso   1.000  O
  O45      1.0000 0.34120  0.33695  0.99033  Biso   1.000  O
  O46      1.0000 0.39878  0.27938  0.93275  Biso   1.000  O
  O47      1.0000 0.72848  0.94970  0.60305  Biso   1.000  O
  O48      1.0000 0.67090  0.00727  0.66063  Biso   1.000  O
  O49      1.0000 0.83398  0.84419  0.09583  Biso   1.000  O
  O50      1.0000 0.89155  0.77255  0.16746  Biso   1.000  O
  O51      1.0000 0.23570  0.44246  0.49755  Biso   1.000  O
  O52      1.0000 0.16406  0.50004  0.43998  Biso   1.000  O
  O53      1.0000 0.72868  0.94949  0.99053  Biso   1.000  O
  O54      1.0000 0.67110  0.00707  0.93295  Biso   1.000  O
  O55      1.0000 0.34100  0.33716  0.60285  Biso   1.000  O
  O56      1.0000 0.39858  0.27958  0.66043  Biso   1.000  O
  O57      1.0000 0.91292  0.52299  0.35625  Biso   1.000  O
  O58      1.0000 0.08116  0.52108  0.19041  Biso   1.000  O
  O59      1.0000 0.91334  0.68841  0.19006  Biso   1.000  O
  O60      1.0000 0.91450  0.52141  0.47937  Biso   1.000  O
  O61      1.0000 0.91259  0.68965  0.47888  Biso   1.000  O
  O62      1.0000 0.07992  0.52182  0.47973  Biso   1.000  O
  O63      1.0000 0.08034  0.81194  0.18883  Biso   1.000  O
  O64      1.0000 0.91450  0.81145  0.35708  Biso   1.000  O
  O65      1.0000 0.91415  0.81230  0.18925  Biso   1.000  O
  O66      1.0000 0.20346  0.68882  0.19041  Biso   1.000  O
  O67      1.0000 0.20297  0.52299  0.18850  Biso   1.000  O
  O68      1.0000 0.20382  0.52263  0.35583  Biso   1.000  O
  O69      1.0000 0.64972  0.25663  0.74416  Biso   1.000  O
  O70      1.0000 0.48148  0.25854  0.91000  Biso   1.000  O
  O71      1.0000 0.64931  0.09121  0.91035  Biso   1.000  O
  O72      1.0000 0.64814  0.25821  0.62104  Biso   1.000  O
  O73      1.0000 0.65005  0.08997  0.62153  Biso   1.000  O
  O74      1.0000 0.48272  0.25779  0.62068  Biso   1.000  O
  O75      1.0000 0.48231  0.96767  0.91157  Biso   1.000  O
  O76      1.0000 0.64814  0.96817  0.74333  Biso   1.000  O
  O77      1.0000 0.64850  0.96732  0.91116  Biso   1.000  O
  O78      1.0000 0.35918  0.09079  0.91000  Biso   1.000  O
  O79      1.0000 0.35968  0.25662  0.91191  Biso   1.000  O
  O80      1.0000 0.35883  0.25698  0.74457  Biso   1.000  O
  O81      1.0000 0.02781  0.63629  0.30372  Biso   1.000  O
  O82      1.0000 0.53484  0.14332  0.79669  Biso   1.000  O
  O83      1.0000 0.84140  0.71633  0.09243  Biso   1.000  O
  O84      1.0000 0.83057  0.96800  0.08919  Biso   1.000  O
  O85      1.0000 0.73531  0.06326  0.99393  Biso   1.000  O
  O86      1.0000 0.74613  0.81159  0.99717  Biso   1.000  O
  O87      1.0000 0.83180  0.96684  0.38359  Biso   1.000  O
  O88      1.0000 0.73517  0.06346  0.48022  Biso   1.000  O
  O89      1.0000 0.12174  0.43595  0.09366  Biso   1.000  O
  O90      1.0000 0.21837  0.33932  0.99703  Biso   1.000  O
  O91      1.0000 0.82865  0.43893  0.62038  Biso   1.000  O
  O92      1.0000 0.12192  0.43582  0.62137  Biso   1.000  O
  O93      1.0000 0.21817  0.06347  0.99585  Biso   1.000  O
  O94      1.0000 0.21719  0.34056  0.71663  Biso   1.000  O
  O95      1.0000 0.84153  0.71615  0.62019  Biso   1.000  O
  O96      1.0000 0.74490  0.81278  0.71682  Biso   1.000  O
  O97      1.0000 0.35834  0.44027  0.08933  Biso   1.000  O
  O98      1.0000 0.45497  0.34365  0.99270  Biso   1.000  O
  O99      1.0000 0.46905  0.81258  0.99405  Biso   1.000  O
  O100     1.0000 0.35951  0.43906  0.38378  Biso   1.000  O
  O101     1.0000 0.45478  0.34380  0.47904  Biso   1.000  O
  O102     1.0000 0.37259  0.71612  0.09051  Biso   1.000  O
  O103     1.0000 0.73400  0.34068  0.48002  Biso   1.000  O
  O104     1.0000 0.83045  0.43714  0.38357  Biso   1.000  O
  O105     1.0000 0.73219  0.34248  0.71684  Biso   1.000  O
  O106     1.0000 0.12172  0.96702  0.09231  Biso   1.000  O
