data_image0
_cell_length_a       18.255
_cell_length_b       18.255
_cell_length_c       18.255
_cell_angle_alpha    60
_cell_angle_beta     60
_cell_angle_gamma    60

_symmetry_space_group_name_H-M    "P 1"
_symmetry_int_tables_number       1

loop_
  _symmetry_equiv_pos_as_xyz
  'x, y, z'

loop_
  _atom_site_label
  _atom_site_occupancy
  _atom_site_fract_x
  _atom_site_fract_y
  _atom_site_fract_z
  _atom_site_thermal_displace_type
  _atom_site_B_iso_or_equiv
  _atom_site_type_symbol
  C1       1.0000 0.29354  0.29354  0.11938  Biso   1.000  C
  C2       1.0000 0.29354  0.29354  0.29354  Biso   1.000  C
  C3       1.0000 0.11938  0.29354  0.29354  Biso   1.000  C
  C4       1.0000 0.29354  0.11938  0.29354  Biso   1.000  C
  C5       1.0000 0.70646  0.70646  0.88062  Biso   1.000  C
  C6       1.0000 0.70646  0.70646  0.70646  Biso   1.000  C
  C7       1.0000 0.70646  0.88062  0.70646  Biso   1.000  C
  C8       1.0000 0.88062  0.70646  0.70646  Biso   1.000  C
  C9       1.0000 0.45570  0.45570  0.93630  Biso   1.000  C
  C10      1.0000 0.45570  0.45570  0.15230  Biso   1.000  C
  C11      1.0000 0.93630  0.15230  0.45570  Biso   1.000  C
  C12      1.0000 0.15230  0.93630  0.45570  Biso   1.000  C
  C13      1.0000 0.45570  0.93630  0.15230  Biso   1.000  C
  C14      1.0000 0.45570  0.15230  0.93630  Biso   1.000  C
  C15      1.0000 0.93630  0.45570  0.45570  Biso   1.000  C
  C16      1.0000 0.15230  0.45570  0.45570  Biso   1.000  C
  C17      1.0000 0.45570  0.15230  0.45570  Biso   1.000  C
  C18      1.0000 0.45570  0.93630  0.45570  Biso   1.000  C
  C19      1.0000 0.93630  0.45570  0.15230  Biso   1.000  C
  C20      1.0000 0.15230  0.45570  0.93630  Biso   1.000  C
  C21      1.0000 0.54430  0.54430  0.06370  Biso   1.000  C
  C22      1.0000 0.54430  0.54430  0.84770  Biso   1.000  C
  C23      1.0000 0.84770  0.06370  0.54430  Biso   1.000  C
  C24      1.0000 0.06370  0.84770  0.54430  Biso   1.000  C
  C25      1.0000 0.06370  0.54430  0.84770  Biso   1.000  C
  C26      1.0000 0.84770  0.54430  0.06370  Biso   1.000  C
  C27      1.0000 0.54430  0.06370  0.54430  Biso   1.000  C
  C28      1.0000 0.54430  0.84770  0.54430  Biso   1.000  C
  C29      1.0000 0.84770  0.54430  0.54430  Biso   1.000  C
  C30      1.0000 0.06370  0.54430  0.54430  Biso   1.000  C
  C31      1.0000 0.54430  0.06370  0.84770  Biso   1.000  C
  C32      1.0000 0.54430  0.84770  0.06370  Biso   1.000  C
  C33      1.0000 0.47332  0.47332  0.96310  Biso   1.000  C
  C34      1.0000 0.47332  0.47332  0.09026  Biso   1.000  C
  C35      1.0000 0.96310  0.09026  0.47332  Biso   1.000  C
  C36      1.0000 0.09026  0.96310  0.47332  Biso   1.000  C
  C37      1.0000 0.47332  0.96310  0.09026  Biso   1.000  C
  C38      1.0000 0.47332  0.09026  0.96310  Biso   1.000  C
  C39      1.0000 0.96310  0.47332  0.47332  Biso   1.000  C
  C40      1.0000 0.09026  0.47332  0.47332  Biso   1.000  C
  C41      1.0000 0.47332  0.09026  0.47332  Biso   1.000  C
  C42      1.0000 0.47332  0.96310  0.47332  Biso   1.000  C
  C43      1.0000 0.96310  0.47332  0.09026  Biso   1.000  C
  C44      1.0000 0.09026  0.47332  0.96310  Biso   1.000  C
  C45      1.0000 0.52668  0.52668  0.03690  Biso   1.000  C
  C46      1.0000 0.52668  0.52668  0.90974  Biso   1.000  C
  C47      1.0000 0.90974  0.03690  0.52668  Biso   1.000  C
  C48      1.0000 0.03690  0.90974  0.52668  Biso   1.000  C
  C49      1.0000 0.03690  0.52668  0.90974  Biso   1.000  C
  C50      1.0000 0.90974  0.52668  0.03690  Biso   1.000  C
  C51      1.0000 0.52668  0.03690  0.52668  Biso   1.000  C
  C52      1.0000 0.52668  0.90974  0.52668  Biso   1.000  C
  C53      1.0000 0.90974  0.52668  0.52668  Biso   1.000  C
  C54      1.0000 0.03690  0.52668  0.52668  Biso   1.000  C
  C55      1.0000 0.52668  0.03690  0.90974  Biso   1.000  C
  C56      1.0000 0.52668  0.90974  0.03690  Biso   1.000  C
  C57      1.0000 0.38870  0.38870  0.11130  Biso   1.000  C
  C58      1.0000 0.44580  0.44580  0.05420  Biso   1.000  C
  C59      1.0000 0.11130  0.11130  0.38870  Biso   1.000  C
  C60      1.0000 0.05420  0.05420  0.44580  Biso   1.000  C
  C61      1.0000 0.38870  0.11130  0.11130  Biso   1.000  C
  C62      1.0000 0.44580  0.05420  0.05420  Biso   1.000  C
  C63      1.0000 0.11130  0.38870  0.38870  Biso   1.000  C
  C64      1.0000 0.05420  0.44580  0.44580  Biso   1.000  C
  C65      1.0000 0.38870  0.11130  0.38870  Biso   1.000  C
  C66      1.0000 0.44580  0.05420  0.44580  Biso   1.000  C
  C67      1.0000 0.11130  0.38870  0.11130  Biso   1.000  C
  C68      1.0000 0.05420  0.44580  0.05420  Biso   1.000  C
  C69      1.0000 0.61130  0.61130  0.88870  Biso   1.000  C
  C70      1.0000 0.55420  0.55420  0.94580  Biso   1.000  C
  C71      1.0000 0.88870  0.88870  0.61130  Biso   1.000  C
  C72      1.0000 0.94580  0.94580  0.55420  Biso   1.000  C
  C73      1.0000 0.88870  0.61130  0.88870  Biso   1.000  C
  C74      1.0000 0.94580  0.55420  0.94580  Biso   1.000  C
  C75      1.0000 0.61130  0.88870  0.61130  Biso   1.000  C
  C76      1.0000 0.55420  0.94580  0.55420  Biso   1.000  C
  C77      1.0000 0.88870  0.61130  0.61130  Biso   1.000  C
  C78      1.0000 0.94580  0.55420  0.55420  Biso   1.000  C
  C79      1.0000 0.61130  0.88870  0.88870  Biso   1.000  C
  C80      1.0000 0.55420  0.94580  0.94580  Biso   1.000  C
  C81      1.0000 0.25000  0.25000  0.25000  Biso   1.000  C
  C82      1.0000 0.75000  0.75000  0.75000  Biso   1.000  C
  C83      1.0000 0.36613  0.36613  0.07303  Biso   1.000  C
  C84      1.0000 0.36613  0.36613  0.19471  Biso   1.000  C
  C85      1.0000 0.07303  0.19471  0.36613  Biso   1.000  C
  C86      1.0000 0.19471  0.07303  0.36613  Biso   1.000  C
  C87      1.0000 0.36613  0.07303  0.19471  Biso   1.000  C
  C88      1.0000 0.36613  0.19471  0.07303  Biso   1.000  C
  C89      1.0000 0.07303  0.36613  0.36613  Biso   1.000  C
  C90      1.0000 0.19471  0.36613  0.36613  Biso   1.000  C
  C91      1.0000 0.36613  0.19471  0.36613  Biso   1.000  C
  C92      1.0000 0.36613  0.07303  0.36613  Biso   1.000  C
  C93      1.0000 0.07303  0.36613  0.19471  Biso   1.000  C
  C94      1.0000 0.19471  0.36613  0.07303  Biso   1.000  C
  C95      1.0000 0.63387  0.63387  0.92697  Biso   1.000  C
  C96      1.0000 0.63387  0.63387  0.80529  Biso   1.000  C
  C97      1.0000 0.80529  0.92697  0.63387  Biso   1.000  C
  C98      1.0000 0.92697  0.80529  0.63387  Biso   1.000  C
  C99      1.0000 0.92697  0.63387  0.80529  Biso   1.000  C
  C100     1.0000 0.80529  0.63387  0.92697  Biso   1.000  C
  C101     1.0000 0.63387  0.92697  0.63387  Biso   1.000  C
  C102     1.0000 0.63387  0.80529  0.63387  Biso   1.000  C
  C103     1.0000 0.80529  0.63387  0.63387  Biso   1.000  C
  C104     1.0000 0.92697  0.63387  0.63387  Biso   1.000  C
  C105     1.0000 0.63387  0.92697  0.80529  Biso   1.000  C
  C106     1.0000 0.63387  0.80529  0.92697  Biso   1.000  C
  O1       1.0000 0.76662  0.26158  0.38088  Biso   1.000  O
  O2       1.0000 0.58166  0.26158  0.56584  Biso   1.000  O
  O3       1.0000 0.58166  0.44654  0.38088  Biso   1.000  O
  O4       1.0000 0.58166  0.26158  0.38088  Biso   1.000  O
  O5       1.0000 0.16005  0.85405  0.80251  Biso   1.000  O
  O6       1.0000 0.98921  0.85405  0.97335  Biso   1.000  O
  O7       1.0000 0.16005  0.85405  0.97335  Biso   1.000  O
  O8       1.0000 0.16005  0.68321  0.97335  Biso   1.000  O
  O9       1.0000 0.01786  0.01611  0.62057  Biso   1.000  O
  O10      1.0000 0.80727  0.01611  0.83116  Biso   1.000  O
  O11      1.0000 0.32211  0.71186  0.13541  Biso   1.000  O
  O12      1.0000 0.32211  0.50127  0.13541  Biso   1.000  O
  O13      1.0000 0.32211  0.50127  0.83116  Biso   1.000  O
  O14      1.0000 0.32211  0.71186  0.62057  Biso   1.000  O
  O15      1.0000 0.01786  0.01611  0.13541  Biso   1.000  O
  O16      1.0000 0.80727  0.01611  0.13541  Biso   1.000  O
  O17      1.0000 0.80727  0.71186  0.13541  Biso   1.000  O
  O18      1.0000 0.01786  0.50127  0.13541  Biso   1.000  O
  O19      1.0000 0.32211  0.01611  0.83116  Biso   1.000  O
  O20      1.0000 0.32211  0.01611  0.62057  Biso   1.000  O
  O21      1.0000 0.90872  0.08247  0.59701  Biso   1.000  O
  O22      1.0000 0.95643  0.03258  0.64906  Biso   1.000  O
  O23      1.0000 0.78370  0.08247  0.72202  Biso   1.000  O
  O24      1.0000 0.83576  0.03258  0.76974  Biso   1.000  O
  O25      1.0000 0.38846  0.60272  0.20177  Biso   1.000  O
  O26      1.0000 0.33858  0.65044  0.15188  Biso   1.000  O
  O27      1.0000 0.38846  0.47770  0.20177  Biso   1.000  O
  O28      1.0000 0.33858  0.52976  0.15188  Biso   1.000  O
  O29      1.0000 0.38846  0.47770  0.72202  Biso   1.000  O
  O30      1.0000 0.33858  0.52976  0.76974  Biso   1.000  O
  O31      1.0000 0.38846  0.60272  0.59701  Biso   1.000  O
  O32      1.0000 0.33858  0.65044  0.64906  Biso   1.000  O
  O33      1.0000 0.90872  0.08247  0.20177  Biso   1.000  O
  O34      1.0000 0.95644  0.03258  0.15188  Biso   1.000  O
  O35      1.0000 0.78370  0.08247  0.20177  Biso   1.000  O
  O36      1.0000 0.83576  0.03258  0.15188  Biso   1.000  O
  O37      1.0000 0.78370  0.60272  0.20177  Biso   1.000  O
  O38      1.0000 0.83576  0.65044  0.15188  Biso   1.000  O
  O39      1.0000 0.90872  0.47770  0.20177  Biso   1.000  O
  O40      1.0000 0.95643  0.52976  0.15188  Biso   1.000  O
  O41      1.0000 0.38846  0.08247  0.72202  Biso   1.000  O
  O42      1.0000 0.33858  0.03258  0.76974  Biso   1.000  O
  O43      1.0000 0.38846  0.08247  0.59701  Biso   1.000  O
  O44      1.0000 0.33858  0.03258  0.64906  Biso   1.000  O
  O45      1.0000 0.75896  0.16972  0.57226  Biso   1.000  O
  O46      1.0000 0.82205  0.10662  0.63536  Biso   1.000  O
  O47      1.0000 0.97773  0.95094  0.79103  Biso   1.000  O
  O48      1.0000 0.92794  0.00073  0.74124  Biso   1.000  O
  O49      1.0000 0.47572  0.45296  0.28902  Biso   1.000  O
  O50      1.0000 0.41262  0.51606  0.22592  Biso   1.000  O
  O51      1.0000 0.25694  0.67173  0.07025  Biso   1.000  O
  O52      1.0000 0.30673  0.62194  0.12003  Biso   1.000  O
  O53      1.0000 0.47572  0.45296  0.57226  Biso   1.000  O
  O54      1.0000 0.41262  0.51606  0.63536  Biso   1.000  O
  O55      1.0000 0.25694  0.67173  0.79103  Biso   1.000  O
  O56      1.0000 0.30673  0.62194  0.74124  Biso   1.000  O
  O57      1.0000 0.75896  0.16972  0.28902  Biso   1.000  O
  O58      1.0000 0.82205  0.10662  0.22592  Biso   1.000  O
  O59      1.0000 0.97773  0.95094  0.07025  Biso   1.000  O
  O60      1.0000 0.92794  0.00073  0.12003  Biso   1.000  O
  O61      1.0000 0.75896  0.45296  0.28902  Biso   1.000  O
  O62      1.0000 0.82205  0.51606  0.22592  Biso   1.000  O
  O63      1.0000 0.97773  0.67173  0.07025  Biso   1.000  O
  O64      1.0000 0.92794  0.62194  0.12003  Biso   1.000  O
  O65      1.0000 0.47572  0.16972  0.57226  Biso   1.000  O
  O66      1.0000 0.41262  0.10662  0.63536  Biso   1.000  O
  O67      1.0000 0.25694  0.95094  0.79103  Biso   1.000  O
  O68      1.0000 0.30673  0.00073  0.74124  Biso   1.000  O
  O69      1.0000 0.11734  0.81134  0.93064  Biso   1.000  O
  O70      1.0000 0.63846  0.30430  0.42360  Biso   1.000  O
  O71      1.0000 0.79721  0.19141  0.49062  Biso   1.000  O
  O72      1.0000 0.06183  0.92639  0.75603  Biso   1.000  O
  O73      1.0000 0.67732  0.19141  0.61051  Biso   1.000  O
  O74      1.0000 0.94273  0.92639  0.87513  Biso   1.000  O
  O75      1.0000 0.49741  0.49121  0.31071  Biso   1.000  O
  O76      1.0000 0.23239  0.75583  0.04570  Biso   1.000  O
  O77      1.0000 0.49741  0.37132  0.31071  Biso   1.000  O
  O78      1.0000 0.23239  0.63673  0.04570  Biso   1.000  O
  O79      1.0000 0.49741  0.37132  0.61051  Biso   1.000  O
  O80      1.0000 0.23239  0.63673  0.87513  Biso   1.000  O
  O81      1.0000 0.49741  0.49121  0.49062  Biso   1.000  O
  O82      1.0000 0.23239  0.75583  0.75603  Biso   1.000  O
  O83      1.0000 0.79721  0.19141  0.31071  Biso   1.000  O
  O84      1.0000 0.06183  0.92639  0.04570  Biso   1.000  O
  O85      1.0000 0.67732  0.19141  0.31071  Biso   1.000  O
  O86      1.0000 0.94273  0.92639  0.04570  Biso   1.000  O
  O87      1.0000 0.67732  0.49121  0.31071  Biso   1.000  O
  O88      1.0000 0.94273  0.75583  0.04570  Biso   1.000  O
  O89      1.0000 0.79721  0.37132  0.31071  Biso   1.000  O
  O90      1.0000 0.06183  0.63673  0.04570  Biso   1.000  O
  O91      1.0000 0.49741  0.19141  0.61051  Biso   1.000  O
  O92      1.0000 0.23239  0.92639  0.87513  Biso   1.000  O
  O93      1.0000 0.49741  0.19141  0.49062  Biso   1.000  O
  O94      1.0000 0.23239  0.92639  0.75603  Biso   1.000  O
