data_image0
_cell_length_a       18.228
_cell_length_b       18.228
_cell_length_c       18.228
_cell_angle_alpha    60
_cell_angle_beta     60
_cell_angle_gamma    60

loop_
  _atom_site_label
  _atom_site_occupancy
  _atom_site_fract_x
  _atom_site_fract_y
  _atom_site_fract_z
  _atom_site_thermal_displace_type
  _atom_site_B_iso_or_equiv
  _atom_site_type_symbol
  Zn1      1.0000 0.29358  0.29359  0.11924  Biso   1.000  Zn
  Zn2      1.0000 0.29358  0.29359  0.29359  Biso   1.000  Zn
  Zn3      1.0000 0.11923  0.29359  0.29359  Biso   1.000  Zn
  Zn4      1.0000 0.29358  0.11924  0.29359  Biso   1.000  Zn
  Zn5      1.0000 0.70642  0.70641  0.88076  Biso   1.000  Zn
  Zn6      1.0000 0.70642  0.70641  0.70641  Biso   1.000  Zn
  Zn7      1.0000 0.70642  0.88076  0.70641  Biso   1.000  Zn
  Zn8      1.0000 0.88077  0.70641  0.70641  Biso   1.000  Zn
  H1       1.0000 0.45570  0.45570  0.93670  Biso   1.000  H
  H2       1.0000 0.45570  0.45570  0.15190  Biso   1.000  H
  H3       1.0000 0.93670  0.15190  0.45570  Biso   1.000  H
  H4       1.0000 0.15190  0.93670  0.45570  Biso   1.000  H
  H5       1.0000 0.45570  0.93670  0.15190  Biso   1.000  H
  H6       1.0000 0.45570  0.15190  0.93670  Biso   1.000  H
  H7       1.0000 0.93670  0.45570  0.45570  Biso   1.000  H
  H8       1.0000 0.15190  0.45570  0.45570  Biso   1.000  H
  H9       1.0000 0.45570  0.15190  0.45570  Biso   1.000  H
  H10      1.0000 0.45570  0.93670  0.45570  Biso   1.000  H
  H11      1.0000 0.93670  0.45570  0.15190  Biso   1.000  H
  H12      1.0000 0.15190  0.45570  0.93670  Biso   1.000  H
  H13      1.0000 0.54430  0.54430  0.06330  Biso   1.000  H
  H14      1.0000 0.54430  0.54430  0.84810  Biso   1.000  H
  H15      1.0000 0.84810  0.06330  0.54430  Biso   1.000  H
  H16      1.0000 0.06330  0.84810  0.54430  Biso   1.000  H
  H17      1.0000 0.06330  0.54430  0.84810  Biso   1.000  H
  H18      1.0000 0.84810  0.54430  0.06330  Biso   1.000  H
  H19      1.0000 0.54430  0.06330  0.54430  Biso   1.000  H
  H20      1.0000 0.54430  0.84810  0.54430  Biso   1.000  H
  H21      1.0000 0.84810  0.54430  0.54430  Biso   1.000  H
  H22      1.0000 0.06330  0.54430  0.54430  Biso   1.000  H
  H23      1.0000 0.54430  0.06330  0.84810  Biso   1.000  H
  H24      1.0000 0.54430  0.84810  0.06330  Biso   1.000  H
  C1       1.0000 0.47340  0.47340  0.96356  Biso   1.000  C
  C2       1.0000 0.47340  0.47340  0.08964  Biso   1.000  C
  C3       1.0000 0.96356  0.08964  0.47340  Biso   1.000  C
  C4       1.0000 0.08964  0.96356  0.47340  Biso   1.000  C
  C5       1.0000 0.47340  0.96356  0.08964  Biso   1.000  C
  C6       1.0000 0.47340  0.08964  0.96356  Biso   1.000  C
  C7       1.0000 0.96356  0.47340  0.47340  Biso   1.000  C
  C8       1.0000 0.08964  0.47340  0.47340  Biso   1.000  C
  C9       1.0000 0.47340  0.08964  0.47340  Biso   1.000  C
  C10      1.0000 0.47340  0.96356  0.47340  Biso   1.000  C
  C11      1.0000 0.96356  0.47340  0.08964  Biso   1.000  C
  C12      1.0000 0.08964  0.47340  0.96356  Biso   1.000  C
  C13      1.0000 0.52660  0.52660  0.03644  Biso   1.000  C
  C14      1.0000 0.52660  0.52660  0.91036  Biso   1.000  C
  C15      1.0000 0.91036  0.03644  0.52660  Biso   1.000  C
  C16      1.0000 0.03644  0.91036  0.52660  Biso   1.000  C
  C17      1.0000 0.03644  0.52660  0.91036  Biso   1.000  C
  C18      1.0000 0.91036  0.52660  0.03644  Biso   1.000  C
  C19      1.0000 0.52660  0.03644  0.52660  Biso   1.000  C
  C20      1.0000 0.52660  0.91036  0.52660  Biso   1.000  C
  C21      1.0000 0.91036  0.52660  0.52660  Biso   1.000  C
  C22      1.0000 0.03644  0.52660  0.52660  Biso   1.000  C
  C23      1.0000 0.52660  0.03644  0.91036  Biso   1.000  C
  C24      1.0000 0.52660  0.91036  0.03644  Biso   1.000  C
  C25      1.0000 0.38850  0.38850  0.11150  Biso   1.000  C
  C26      1.0000 0.44610  0.44610  0.05390  Biso   1.000  C
  C27      1.0000 0.11150  0.11150  0.38850  Biso   1.000  C
  C28      1.0000 0.05390  0.05390  0.44610  Biso   1.000  C
  C29      1.0000 0.38850  0.11150  0.11150  Biso   1.000  C
  C30      1.0000 0.44610  0.05390  0.05390  Biso   1.000  C
  C31      1.0000 0.11150  0.38850  0.38850  Biso   1.000  C
  C32      1.0000 0.05390  0.44610  0.44610  Biso   1.000  C
  C33      1.0000 0.38850  0.11150  0.38850  Biso   1.000  C
  C34      1.0000 0.44610  0.05390  0.44610  Biso   1.000  C
  C35      1.0000 0.11150  0.38850  0.11150  Biso   1.000  C
  C36      1.0000 0.05390  0.44610  0.05390  Biso   1.000  C
  C37      1.0000 0.61150  0.61150  0.88850  Biso   1.000  C
  C38      1.0000 0.55390  0.55390  0.94610  Biso   1.000  C
  C39      1.0000 0.88850  0.88850  0.61150  Biso   1.000  C
  C40      1.0000 0.94610  0.94610  0.55390  Biso   1.000  C
  C41      1.0000 0.88850  0.61150  0.88850  Biso   1.000  C
  C42      1.0000 0.94610  0.55390  0.94610  Biso   1.000  C
  C43      1.0000 0.61150  0.88850  0.61150  Biso   1.000  C
  C44      1.0000 0.55390  0.94610  0.55390  Biso   1.000  C
  C45      1.0000 0.88850  0.61150  0.61150  Biso   1.000  C
  C46      1.0000 0.94610  0.55390  0.55390  Biso   1.000  C
  C47      1.0000 0.61150  0.88850  0.88850  Biso   1.000  C
  C48      1.0000 0.55390  0.94610  0.94610  Biso   1.000  C
  O1       1.0000 0.25000  0.25000  0.25000  Biso   1.000  O
  O2       1.0000 0.75000  0.75000  0.75000  Biso   1.000  O
  O3       1.0000 0.36610  0.36610  0.07322  Biso   1.000  O
  O4       1.0000 0.36610  0.36610  0.19458  Biso   1.000  O
  O5       1.0000 0.07322  0.19458  0.36610  Biso   1.000  O
  O6       1.0000 0.19458  0.07322  0.36610  Biso   1.000  O
  O7       1.0000 0.36610  0.07322  0.19458  Biso   1.000  O
  O8       1.0000 0.36610  0.19458  0.07322  Biso   1.000  O
  O9       1.0000 0.07322  0.36610  0.36610  Biso   1.000  O
  O10      1.0000 0.19458  0.36610  0.36610  Biso   1.000  O
  O11      1.0000 0.36610  0.19458  0.36610  Biso   1.000  O
  O12      1.0000 0.36610  0.07322  0.36610  Biso   1.000  O
  O13      1.0000 0.07322  0.36610  0.19458  Biso   1.000  O
  O14      1.0000 0.19458  0.36610  0.07322  Biso   1.000  O
  O15      1.0000 0.63390  0.63390  0.92678  Biso   1.000  O
  O16      1.0000 0.63390  0.63390  0.80542  Biso   1.000  O
  O17      1.0000 0.80542  0.92678  0.63390  Biso   1.000  O
  O18      1.0000 0.92678  0.80542  0.63390  Biso   1.000  O
  O19      1.0000 0.92678  0.63390  0.80542  Biso   1.000  O
  O20      1.0000 0.80542  0.63390  0.92678  Biso   1.000  O
  O21      1.0000 0.63390  0.92678  0.63390  Biso   1.000  O
  O22      1.0000 0.63390  0.80542  0.63390  Biso   1.000  O
  O23      1.0000 0.80542  0.63390  0.63390  Biso   1.000  O
  O24      1.0000 0.92678  0.63390  0.63390  Biso   1.000  O
  O25      1.0000 0.63390  0.92678  0.80542  Biso   1.000  O
  O26      1.0000 0.63390  0.80542  0.92678  Biso   1.000  O
  Zn9      1.0000 0.92490  0.92382  0.06690  Biso   1.000  Zn
  Zn10     1.0000 0.09671  0.92378  0.89509  Biso   1.000  Zn
  Zn11     1.0000 0.09676  0.75197  0.06690  Biso   1.000  Zn
  Zn12     1.0000 0.09671  0.92377  0.06695  Biso   1.000  Zn
  Zn13     1.0000 0.68691  0.33357  0.48529  Biso   1.000  Zn
  Zn14     1.0000 0.51510  0.33362  0.65710  Biso   1.000  Zn
  Zn15     1.0000 0.51505  0.50543  0.48529  Biso   1.000  Zn
  Zn16     1.0000 0.51510  0.33362  0.48524  Biso   1.000  Zn
  C49      1.0000 0.76725  0.10271  0.86772  Biso   1.000  C
  C50      1.0000 0.76624  0.72440  0.25360  Biso   1.000  C
  C51      1.0000 0.76743  0.10333  0.25260  Biso   1.000  C
  C52      1.0000 0.89752  0.10172  0.73744  Biso   1.000  C
  C53      1.0000 0.28341  0.10371  0.73644  Biso   1.000  C
  C54      1.0000 0.28241  0.72459  0.73763  Biso   1.000  C
  C55      1.0000 0.28418  0.58577  0.25339  Biso   1.000  C
  C56      1.0000 0.89731  0.58476  0.25538  Biso   1.000  C
  C57      1.0000 0.28479  0.58594  0.86771  Biso   1.000  C
  C58      1.0000 0.28319  0.72461  0.25438  Biso   1.000  C
  C59      1.0000 0.28519  0.10193  0.86751  Biso   1.000  C
  C60      1.0000 0.89751  0.10095  0.25498  Biso   1.000  C
  C61      1.0000 0.84456  0.15468  0.68448  Biso   1.000  C
  C62      1.0000 0.84556  0.53301  0.30713  Biso   1.000  C
  C63      1.0000 0.84437  0.15409  0.30813  Biso   1.000  C
  C64      1.0000 0.71428  0.15567  0.81475  Biso   1.000  C
  C65      1.0000 0.33694  0.15368  0.81576  Biso   1.000  C
  C66      1.0000 0.33794  0.53280  0.81457  Biso   1.000  C
  C67      1.0000 0.33616  0.66308  0.30734  Biso   1.000  C
  C68      1.0000 0.71449  0.66408  0.30535  Biso   1.000  C
  C69      1.0000 0.33556  0.66288  0.68449  Biso   1.000  C
  C70      1.0000 0.33715  0.53280  0.30635  Biso   1.000  C
  C71      1.0000 0.33516  0.15547  0.68468  Biso   1.000  C
  C72      1.0000 0.71429  0.15647  0.30575  Biso   1.000  C
  C73      1.0000 0.85924  0.07536  0.82944  Biso   1.000  C
  C74      1.0000 0.91742  0.01718  0.88762  Biso   1.000  C
  C75      1.0000 0.25683  0.68633  0.22702  Biso   1.000  C
  C76      1.0000 0.19012  0.74449  0.16031  Biso   1.000  C
  C77      1.0000 0.75256  0.18204  0.72276  Biso   1.000  C
  C78      1.0000 0.69438  0.24021  0.66458  Biso   1.000  C
  C79      1.0000 0.36351  0.57108  0.33371  Biso   1.000  C
  C80      1.0000 0.42169  0.51290  0.39188  Biso   1.000  C
  C81      1.0000 0.85904  0.07557  0.22722  Biso   1.000  C
  C82      1.0000 0.91695  0.01765  0.16078  Biso   1.000  C
  C83      1.0000 0.25703  0.67755  0.82924  Biso   1.000  C
  C84      1.0000 0.19059  0.74402  0.88714  Biso   1.000  C
  C85      1.0000 0.75276  0.18185  0.33351  Biso   1.000  C
  C86      1.0000 0.69486  0.23974  0.39141  Biso   1.000  C
  C87      1.0000 0.36332  0.57127  0.72295  Biso   1.000  C
  C88      1.0000 0.42122  0.51337  0.66505  Biso   1.000  C
  C89      1.0000 0.85884  0.67736  0.22742  Biso   1.000  C
  C90      1.0000 0.91675  0.74382  0.16098  Biso   1.000  C
  C91      1.0000 0.25723  0.07575  0.82904  Biso   1.000  C
  C92      1.0000 0.19079  0.01785  0.88694  Biso   1.000  C
  C93      1.0000 0.75296  0.57148  0.33331  Biso   1.000  C
  C94      1.0000 0.69506  0.51358  0.39121  Biso   1.000  C
  C95      1.0000 0.36312  0.18164  0.72315  Biso   1.000  C
  C96      1.0000 0.42102  0.23954  0.66525  Biso   1.000  C
  O27      1.0000 0.87713  0.99477  0.97114  Biso   1.000  O
  O28      1.0000 0.87763  0.99669  0.13790  Biso   1.000  O
  O29      1.0000 0.87678  0.82842  0.13826  Biso   1.000  O
  O30      1.0000 0.00094  0.99636  0.84732  Biso   1.000  O
  O31      1.0000 0.16771  0.82718  0.84782  Biso   1.000  O
  O32      1.0000 0.16806  0.99594  0.84697  Biso   1.000  O
  O33      1.0000 0.16771  0.70420  0.13949  Biso   1.000  O
  O34      1.0000 0.16963  0.70470  0.97030  Biso   1.000  O
  O35      1.0000 0.00136  0.70384  0.13907  Biso   1.000  O
  O36      1.0000 0.16929  0.82801  0.13790  Biso   1.000  O
  O37      1.0000 0.00011  0.99477  0.13983  Biso   1.000  O
  O38      1.0000 0.16888  0.99513  0.97155  Biso   1.000  O
  O39      1.0000 0.73468  0.26262  0.58106  Biso   1.000  O
  O40      1.0000 0.73418  0.26070  0.41429  Biso   1.000  O
  O41      1.0000 0.73503  0.42897  0.41393  Biso   1.000  O
  O42      1.0000 0.61086  0.26103  0.70487  Biso   1.000  O
  O43      1.0000 0.44410  0.43021  0.70437  Biso   1.000  O
  O44      1.0000 0.44374  0.26145  0.70523  Biso   1.000  O
  O45      1.0000 0.44410  0.55319  0.41271  Biso   1.000  O
  O46      1.0000 0.44218  0.55269  0.58189  Biso   1.000  O
  O47      1.0000 0.61044  0.55355  0.41312  Biso   1.000  O
  O48      1.0000 0.44251  0.42938  0.41429  Biso   1.000  O
  O49      1.0000 0.61169  0.26263  0.41237  Biso   1.000  O
  O50      1.0000 0.44293  0.26227  0.58064  Biso   1.000  O
  O51      1.0000 0.05377  0.88083  0.02396  Biso   1.000  O
  O52      1.0000 0.55804  0.37656  0.52823  Biso   1.000  O
  H25      1.0000 0.73434  0.80035  0.23084  Biso   1.000  H
  H26      1.0000 0.97326  0.55286  0.23409  Biso   1.000  H
  H27      1.0000 0.87746  0.45707  0.32989  Biso   1.000  H
  H28      1.0000 0.63854  0.70455  0.32664  Biso   1.000  H
  H29      1.0000 0.26377  0.55403  0.94364  Biso   1.000  H
  H30      1.0000 0.36094  0.45687  0.84647  Biso   1.000  H
  H31      1.0000 0.73553  0.08230  0.22960  Biso   1.000  H
  H32      1.0000 0.63835  0.17947  0.32677  Biso   1.000  H
  H33      1.0000 0.97347  0.07930  0.70552  Biso   1.000  H
  H34      1.0000 0.26065  0.08243  0.70453  Biso   1.000  H
  H35      1.0000 0.35958  0.45686  0.32795  Biso   1.000  H
  H36      1.0000 0.35645  0.17822  0.60874  Biso   1.000  H
  H37      1.0000 0.25941  0.80053  0.70572  Biso   1.000  H
  H38      1.0000 0.35658  0.70336  0.60855  Biso   1.000  H
  H39      1.0000 0.97345  0.07795  0.23395  Biso   1.000  H
  H40      1.0000 0.87627  0.17512  0.33113  Biso   1.000  H
  H41      1.0000 0.35776  0.70356  0.32977  Biso   1.000  H
  H42      1.0000 0.26391  0.07917  0.94346  Biso   1.000  H
  H43      1.0000 0.35970  0.17496  0.84766  Biso   1.000  H
  H44      1.0000 0.26077  0.80056  0.23277  Biso   1.000  H
  H45      1.0000 0.63834  0.17810  0.84667  Biso   1.000  H
  H46      1.0000 0.73533  0.08110  0.94366  Biso   1.000  H
  H47      1.0000 0.87647  0.17629  0.60853  Biso   1.000  H
  H48      1.0000 0.26258  0.55385  0.23096  Biso   1.000  H
