data_image0
_cell_length_a       18.2789
_cell_length_b       18.2789
_cell_length_c       18.2789
_cell_angle_alpha    60
_cell_angle_beta     60
_cell_angle_gamma    60

_symmetry_space_group_name_H-M    "P 1"
_symmetry_int_tables_number       1

loop_
  _symmetry_equiv_pos_as_xyz
  'x, y, z'

loop_
  _atom_site_label
  _atom_site_occupancy
  _atom_site_fract_x
  _atom_site_fract_y
  _atom_site_fract_z
  _atom_site_thermal_displace_type
  _atom_site_B_iso_or_equiv
  _atom_site_type_symbol
  Zn1      1.0000 0.29348  0.29347  0.11958  Biso   1.000  Zn
  Zn2      1.0000 0.29348  0.29347  0.29347  Biso   1.000  Zn
  Zn3      1.0000 0.11959  0.29347  0.29347  Biso   1.000  Zn
  Zn4      1.0000 0.29348  0.11958  0.29347  Biso   1.000  Zn
  Zn5      1.0000 0.70652  0.70653  0.88042  Biso   1.000  Zn
  Zn6      1.0000 0.70652  0.70653  0.70653  Biso   1.000  Zn
  Zn7      1.0000 0.70652  0.88042  0.70653  Biso   1.000  Zn
  Zn8      1.0000 0.88041  0.70653  0.70653  Biso   1.000  Zn
  H1       1.0000 0.45520  0.45520  0.93520  Biso   1.000  H
  H2       1.0000 0.45520  0.45520  0.15440  Biso   1.000  H
  H3       1.0000 0.93520  0.15440  0.45520  Biso   1.000  H
  H4       1.0000 0.15440  0.93520  0.45520  Biso   1.000  H
  H5       1.0000 0.45520  0.93520  0.15440  Biso   1.000  H
  H6       1.0000 0.45520  0.15440  0.93520  Biso   1.000  H
  H7       1.0000 0.93520  0.45520  0.45520  Biso   1.000  H
  H8       1.0000 0.15440  0.45520  0.45520  Biso   1.000  H
  H9       1.0000 0.45520  0.15440  0.45520  Biso   1.000  H
  H10      1.0000 0.45520  0.93520  0.45520  Biso   1.000  H
  H11      1.0000 0.93520  0.45520  0.15440  Biso   1.000  H
  H12      1.0000 0.15440  0.45520  0.93520  Biso   1.000  H
  H13      1.0000 0.54480  0.54480  0.06480  Biso   1.000  H
  H14      1.0000 0.54480  0.54480  0.84560  Biso   1.000  H
  H15      1.0000 0.84560  0.06480  0.54480  Biso   1.000  H
  H16      1.0000 0.06480  0.84560  0.54480  Biso   1.000  H
  H17      1.0000 0.06480  0.54480  0.84560  Biso   1.000  H
  H18      1.0000 0.84560  0.54480  0.06480  Biso   1.000  H
  H19      1.0000 0.54480  0.06480  0.54480  Biso   1.000  H
  H20      1.0000 0.54480  0.84560  0.54480  Biso   1.000  H
  H21      1.0000 0.84560  0.54480  0.54480  Biso   1.000  H
  H22      1.0000 0.06480  0.54480  0.54480  Biso   1.000  H
  H23      1.0000 0.54480  0.06480  0.84560  Biso   1.000  H
  H24      1.0000 0.54480  0.84560  0.06480  Biso   1.000  H
  C1       1.0000 0.47338  0.47338  0.96214  Biso   1.000  C
  C2       1.0000 0.47338  0.47338  0.09110  Biso   1.000  C
  C3       1.0000 0.96214  0.09110  0.47338  Biso   1.000  C
  C4       1.0000 0.09110  0.96214  0.47338  Biso   1.000  C
  C5       1.0000 0.47338  0.96214  0.09110  Biso   1.000  C
  C6       1.0000 0.47338  0.09110  0.96214  Biso   1.000  C
  C7       1.0000 0.96214  0.47338  0.47338  Biso   1.000  C
  C8       1.0000 0.09110  0.47338  0.47338  Biso   1.000  C
  C9       1.0000 0.47338  0.09110  0.47338  Biso   1.000  C
  C10      1.0000 0.47338  0.96214  0.47338  Biso   1.000  C
  C11      1.0000 0.96214  0.47338  0.09110  Biso   1.000  C
  C12      1.0000 0.09110  0.47338  0.96214  Biso   1.000  C
  C13      1.0000 0.52662  0.52662  0.03786  Biso   1.000  C
  C14      1.0000 0.52662  0.52662  0.90890  Biso   1.000  C
  C15      1.0000 0.90890  0.03786  0.52662  Biso   1.000  C
  C16      1.0000 0.03786  0.90890  0.52662  Biso   1.000  C
  C17      1.0000 0.03786  0.52662  0.90890  Biso   1.000  C
  C18      1.0000 0.90890  0.52662  0.03786  Biso   1.000  C
  C19      1.0000 0.52662  0.03786  0.52662  Biso   1.000  C
  C20      1.0000 0.52662  0.90890  0.52662  Biso   1.000  C
  C21      1.0000 0.90890  0.52662  0.52662  Biso   1.000  C
  C22      1.0000 0.03786  0.52662  0.52662  Biso   1.000  C
  C23      1.0000 0.52662  0.03786  0.90890  Biso   1.000  C
  C24      1.0000 0.52662  0.90890  0.03786  Biso   1.000  C
  C25      1.0000 0.38853  0.38853  0.11147  Biso   1.000  C
  C26      1.0000 0.44615  0.44615  0.05385  Biso   1.000  C
  C27      1.0000 0.11147  0.11147  0.38853  Biso   1.000  C
  C28      1.0000 0.05385  0.05385  0.44615  Biso   1.000  C
  C29      1.0000 0.38853  0.11147  0.11147  Biso   1.000  C
  C30      1.0000 0.44615  0.05385  0.05385  Biso   1.000  C
  C31      1.0000 0.11147  0.38853  0.38853  Biso   1.000  C
  C32      1.0000 0.05385  0.44615  0.44615  Biso   1.000  C
  C33      1.0000 0.38853  0.11147  0.38853  Biso   1.000  C
  C34      1.0000 0.44615  0.05385  0.44615  Biso   1.000  C
  C35      1.0000 0.11147  0.38853  0.11147  Biso   1.000  C
  C36      1.0000 0.05385  0.44615  0.05385  Biso   1.000  C
  C37      1.0000 0.61147  0.61147  0.88853  Biso   1.000  C
  C38      1.0000 0.55385  0.55385  0.94615  Biso   1.000  C
  C39      1.0000 0.88853  0.88853  0.61147  Biso   1.000  C
  C40      1.0000 0.94615  0.94615  0.55385  Biso   1.000  C
  C41      1.0000 0.88853  0.61147  0.88853  Biso   1.000  C
  C42      1.0000 0.94615  0.55385  0.94615  Biso   1.000  C
  C43      1.0000 0.61147  0.88853  0.61147  Biso   1.000  C
  C44      1.0000 0.55385  0.94615  0.55385  Biso   1.000  C
  C45      1.0000 0.88853  0.61147  0.61147  Biso   1.000  C
  C46      1.0000 0.94615  0.55385  0.55385  Biso   1.000  C
  C47      1.0000 0.61147  0.88853  0.88853  Biso   1.000  C
  C48      1.0000 0.55385  0.94615  0.94615  Biso   1.000  C
  O1       1.0000 0.25000  0.25000  0.25000  Biso   1.000  O
  O2       1.0000 0.75000  0.75000  0.75000  Biso   1.000  O
  O3       1.0000 0.36624  0.36624  0.07286  Biso   1.000  O
  O4       1.0000 0.36624  0.36624  0.19466  Biso   1.000  O
  O5       1.0000 0.07286  0.19466  0.36624  Biso   1.000  O
  O6       1.0000 0.19466  0.07286  0.36624  Biso   1.000  O
  O7       1.0000 0.36624  0.07286  0.19466  Biso   1.000  O
  O8       1.0000 0.36624  0.19466  0.07286  Biso   1.000  O
  O9       1.0000 0.07286  0.36624  0.36624  Biso   1.000  O
  O10      1.0000 0.19466  0.36624  0.36624  Biso   1.000  O
  O11      1.0000 0.36624  0.19466  0.36624  Biso   1.000  O
  O12      1.0000 0.36624  0.07286  0.36624  Biso   1.000  O
  O13      1.0000 0.07286  0.36624  0.19466  Biso   1.000  O
  O14      1.0000 0.19466  0.36624  0.07286  Biso   1.000  O
  O15      1.0000 0.63376  0.63376  0.92714  Biso   1.000  O
  O16      1.0000 0.63376  0.63376  0.80534  Biso   1.000  O
  O17      1.0000 0.80534  0.92714  0.63376  Biso   1.000  O
  O18      1.0000 0.92714  0.80534  0.63376  Biso   1.000  O
  O19      1.0000 0.92714  0.63376  0.80534  Biso   1.000  O
  O20      1.0000 0.80534  0.63376  0.92714  Biso   1.000  O
  O21      1.0000 0.63376  0.92714  0.63376  Biso   1.000  O
  O22      1.0000 0.63376  0.80534  0.63376  Biso   1.000  O
  O23      1.0000 0.80534  0.63376  0.63376  Biso   1.000  O
  O24      1.0000 0.92714  0.63376  0.63376  Biso   1.000  O
  O25      1.0000 0.63376  0.92714  0.80534  Biso   1.000  O
  O26      1.0000 0.63376  0.80534  0.92714  Biso   1.000  O
  Zn9      1.0000 0.00548  0.83618  0.13344  Biso   1.000  Zn
  Zn10     1.0000 0.83342  0.00823  0.13344  Biso   1.000  Zn
  Zn11     1.0000 0.00548  0.00823  0.13344  Biso   1.000  Zn
  Zn12     1.0000 0.00548  0.00823  0.96138  Biso   1.000  Zn
  Zn13     1.0000 0.59588  0.41794  0.54314  Biso   1.000  Zn
  Zn14     1.0000 0.41518  0.59863  0.54314  Biso   1.000  Zn
  Zn15     1.0000 0.41518  0.41794  0.72384  Biso   1.000  Zn
  Zn16     1.0000 0.41518  0.41794  0.54314  Biso   1.000  Zn
  H25      1.0000 0.77883  0.56542  0.38214  Biso   1.000  H
  H26      1.0000 0.56267  0.78158  0.38214  Biso   1.000  H
  H27      1.0000 0.25418  0.25694  0.90679  Biso   1.000  H
  H28      1.0000 0.25418  0.25694  0.69063  Biso   1.000  H
  H29      1.0000 0.77883  0.25694  0.38214  Biso   1.000  H
  H30      1.0000 0.56267  0.25694  0.38214  Biso   1.000  H
  H31      1.0000 0.25418  0.78158  0.69063  Biso   1.000  H
  H32      1.0000 0.25418  0.56542  0.90679  Biso   1.000  H
  H33      1.0000 0.77883  0.25694  0.69063  Biso   1.000  H
  H34      1.0000 0.56267  0.25694  0.90679  Biso   1.000  H
  H35      1.0000 0.25418  0.56542  0.38214  Biso   1.000  H
  H36      1.0000 0.25418  0.78158  0.38214  Biso   1.000  H
  C49      1.0000 0.79440  0.68015  0.31700  Biso   1.000  C
  C50      1.0000 0.75235  0.62700  0.36459  Biso   1.000  C
  C51      1.0000 0.67739  0.79715  0.31700  Biso   1.000  C
  C52      1.0000 0.62425  0.75511  0.36459  Biso   1.000  C
  C53      1.0000 0.18904  0.19179  0.92236  Biso   1.000  C
  C54      1.0000 0.23663  0.23939  0.88031  Biso   1.000  C
  C55      1.0000 0.18904  0.19179  0.80535  Biso   1.000  C
  C56      1.0000 0.23663  0.23939  0.75220  Biso   1.000  C
  C57      1.0000 0.79440  0.19179  0.31700  Biso   1.000  C
  C58      1.0000 0.75235  0.23939  0.36459  Biso   1.000  C
  C59      1.0000 0.67739  0.19179  0.31700  Biso   1.000  C
  C60      1.0000 0.62425  0.23939  0.36459  Biso   1.000  C
  C61      1.0000 0.18904  0.79715  0.80535  Biso   1.000  C
  C62      1.0000 0.23663  0.75511  0.75220  Biso   1.000  C
  C63      1.0000 0.18904  0.68015  0.92236  Biso   1.000  C
  C64      1.0000 0.23663  0.62700  0.88031  Biso   1.000  C
  C65      1.0000 0.79440  0.19179  0.80535  Biso   1.000  C
  C66      1.0000 0.75235  0.23939  0.75220  Biso   1.000  C
  C67      1.0000 0.67739  0.19179  0.92236  Biso   1.000  C
  C68      1.0000 0.62425  0.23939  0.88031  Biso   1.000  C
  C69      1.0000 0.18904  0.68015  0.31700  Biso   1.000  C
  C70      1.0000 0.23663  0.62700  0.36459  Biso   1.000  C
  C71      1.0000 0.18904  0.79715  0.31700  Biso   1.000  C
  C72      1.0000 0.23663  0.75511  0.36459  Biso   1.000  C
  C73      1.0000 0.76901  0.77177  0.28388  Biso   1.000  C
  C74      1.0000 0.66569  0.66844  0.38720  Biso   1.000  C
  C75      1.0000 0.60481  0.60756  0.44808  Biso   1.000  C
  C76      1.0000 0.82533  0.82809  0.22756  Biso   1.000  C
  C77      1.0000 0.15592  0.15867  0.89697  Biso   1.000  C
  C78      1.0000 0.25924  0.26199  0.79365  Biso   1.000  C
  C79      1.0000 0.32012  0.32287  0.73277  Biso   1.000  C
  C80      1.0000 0.09960  0.10235  0.95329  Biso   1.000  C
  C81      1.0000 0.76901  0.15867  0.28388  Biso   1.000  C
  C82      1.0000 0.66569  0.26199  0.38720  Biso   1.000  C
  C83      1.0000 0.60481  0.32287  0.44808  Biso   1.000  C
  C84      1.0000 0.82533  0.10235  0.22756  Biso   1.000  C
  C85      1.0000 0.15592  0.77177  0.89697  Biso   1.000  C
  C86      1.0000 0.25924  0.66844  0.79365  Biso   1.000  C
  C87      1.0000 0.32012  0.60756  0.73277  Biso   1.000  C
  C88      1.0000 0.09960  0.82809  0.95329  Biso   1.000  C
  C89      1.0000 0.76901  0.15867  0.89697  Biso   1.000  C
  C90      1.0000 0.66569  0.26199  0.79365  Biso   1.000  C
  C91      1.0000 0.60481  0.32287  0.73277  Biso   1.000  C
  C92      1.0000 0.82533  0.10235  0.95329  Biso   1.000  C
  C93      1.0000 0.15592  0.77177  0.28388  Biso   1.000  C
  C94      1.0000 0.25924  0.66844  0.38720  Biso   1.000  C
  C95      1.0000 0.32012  0.60756  0.44808  Biso   1.000  C
  C96      1.0000 0.09960  0.82809  0.22756  Biso   1.000  C
  O27      1.0000 0.64368  0.52070  0.47208  Biso   1.000  O
  O28      1.0000 0.90446  0.79140  0.20634  Biso   1.000  O
  O29      1.0000 0.51795  0.64643  0.47208  Biso   1.000  O
  O30      1.0000 0.78865  0.90721  0.20634  Biso   1.000  O
  O31      1.0000 0.34412  0.34687  0.77164  Biso   1.000  O
  O32      1.0000 0.07838  0.08113  0.03242  Biso   1.000  O
  O33      1.0000 0.34412  0.34687  0.64591  Biso   1.000  O
  O34      1.0000 0.07838  0.08113  0.91661  Biso   1.000  O
  O35      1.0000 0.64368  0.34687  0.47208  Biso   1.000  O
  O36      1.0000 0.90446  0.08113  0.20634  Biso   1.000  O
  O37      1.0000 0.51795  0.34687  0.47208  Biso   1.000  O
  O38      1.0000 0.78865  0.08113  0.20634  Biso   1.000  O
  O39      1.0000 0.34412  0.64643  0.64591  Biso   1.000  O
  O40      1.0000 0.07838  0.90721  0.91661  Biso   1.000  O
  O41      1.0000 0.34412  0.52070  0.77164  Biso   1.000  O
  O42      1.0000 0.07838  0.79140  0.03242  Biso   1.000  O
  O43      1.0000 0.64368  0.34687  0.64591  Biso   1.000  O
  O44      1.0000 0.90446  0.08113  0.91661  Biso   1.000  O
  O45      1.0000 0.51795  0.34687  0.77164  Biso   1.000  O
  O46      1.0000 0.78865  0.08113  0.03242  Biso   1.000  O
  O47      1.0000 0.34412  0.52070  0.47208  Biso   1.000  O
  O48      1.0000 0.07838  0.79140  0.20634  Biso   1.000  O
  O49      1.0000 0.34412  0.64643  0.47208  Biso   1.000  O
  O50      1.0000 0.07838  0.90721  0.20634  Biso   1.000  O
  O51      1.0000 0.46669  0.46944  0.59465  Biso   1.000  O
  O52      1.0000 0.96247  0.96522  0.09043  Biso   1.000  O
