data_image0
_cell_length_a       18.2888
_cell_length_b       18.2888
_cell_length_c       18.2888
_cell_angle_alpha    60
_cell_angle_beta     60
_cell_angle_gamma    60

loop_
  _atom_site_label
  _atom_site_occupancy
  _atom_site_fract_x
  _atom_site_fract_y
  _atom_site_fract_z
  _atom_site_thermal_displace_type
  _atom_site_B_iso_or_equiv
  _atom_site_type_symbol
  C1       1.0000 0.29344  0.29345  0.11966  Biso   1.000  C
  C2       1.0000 0.29344  0.29345  0.29345  Biso   1.000  C
  C3       1.0000 0.11965  0.29345  0.29345  Biso   1.000  C
  C4       1.0000 0.29344  0.11966  0.29345  Biso   1.000  C
  C5       1.0000 0.70655  0.70656  0.88034  Biso   1.000  C
  C6       1.0000 0.70656  0.70655  0.70655  Biso   1.000  C
  C7       1.0000 0.70655  0.88034  0.70656  Biso   1.000  C
  C8       1.0000 0.88035  0.70655  0.70655  Biso   1.000  C
  C9       1.0000 0.45490  0.45490  0.93490  Biso   1.000  C
  C10      1.0000 0.45490  0.45490  0.15530  Biso   1.000  C
  C11      1.0000 0.93490  0.15530  0.45490  Biso   1.000  C
  C12      1.0000 0.15530  0.93490  0.45490  Biso   1.000  C
  C13      1.0000 0.45490  0.93490  0.15530  Biso   1.000  C
  C14      1.0000 0.45490  0.15530  0.93490  Biso   1.000  C
  C15      1.0000 0.93490  0.45490  0.45490  Biso   1.000  C
  C16      1.0000 0.15530  0.45490  0.45490  Biso   1.000  C
  C17      1.0000 0.45490  0.15530  0.45490  Biso   1.000  C
  C18      1.0000 0.45490  0.93490  0.45490  Biso   1.000  C
  C19      1.0000 0.93490  0.45490  0.15530  Biso   1.000  C
  C20      1.0000 0.15530  0.45490  0.93490  Biso   1.000  C
  C21      1.0000 0.54510  0.54510  0.06510  Biso   1.000  C
  C22      1.0000 0.54510  0.54510  0.84470  Biso   1.000  C
  C23      1.0000 0.84470  0.06510  0.54510  Biso   1.000  C
  C24      1.0000 0.06510  0.84470  0.54510  Biso   1.000  C
  C25      1.0000 0.06510  0.54510  0.84470  Biso   1.000  C
  C26      1.0000 0.84470  0.54510  0.06510  Biso   1.000  C
  C27      1.0000 0.54510  0.06510  0.54510  Biso   1.000  C
  C28      1.0000 0.54510  0.84470  0.54510  Biso   1.000  C
  C29      1.0000 0.84470  0.54510  0.54510  Biso   1.000  C
  C30      1.0000 0.06510  0.54510  0.54510  Biso   1.000  C
  C31      1.0000 0.54510  0.06510  0.84470  Biso   1.000  C
  C32      1.0000 0.54510  0.84470  0.06510  Biso   1.000  C
  C33      1.0000 0.47314  0.47314  0.96174  Biso   1.000  C
  C34      1.0000 0.47314  0.47314  0.09198  Biso   1.000  C
  C35      1.0000 0.96174  0.09198  0.47314  Biso   1.000  C
  C36      1.0000 0.09198  0.96174  0.47314  Biso   1.000  C
  C37      1.0000 0.47314  0.96174  0.09198  Biso   1.000  C
  C38      1.0000 0.47314  0.09198  0.96174  Biso   1.000  C
  C39      1.0000 0.96174  0.47314  0.47314  Biso   1.000  C
  C40      1.0000 0.09198  0.47314  0.47314  Biso   1.000  C
  C41      1.0000 0.47314  0.09198  0.47314  Biso   1.000  C
  C42      1.0000 0.47314  0.96174  0.47314  Biso   1.000  C
  C43      1.0000 0.96174  0.47314  0.09198  Biso   1.000  C
  C44      1.0000 0.09198  0.47314  0.96174  Biso   1.000  C
  C45      1.0000 0.52686  0.52686  0.03826  Biso   1.000  C
  C46      1.0000 0.52686  0.52686  0.90802  Biso   1.000  C
  C47      1.0000 0.90802  0.03826  0.52686  Biso   1.000  C
  C48      1.0000 0.03826  0.90802  0.52686  Biso   1.000  C
  C49      1.0000 0.03826  0.52686  0.90802  Biso   1.000  C
  C50      1.0000 0.90802  0.52686  0.03826  Biso   1.000  C
  C51      1.0000 0.52686  0.03826  0.52686  Biso   1.000  C
  C52      1.0000 0.52686  0.90802  0.52686  Biso   1.000  C
  C53      1.0000 0.90802  0.52686  0.52686  Biso   1.000  C
  C54      1.0000 0.03826  0.52686  0.52686  Biso   1.000  C
  C55      1.0000 0.52686  0.03826  0.90802  Biso   1.000  C
  C56      1.0000 0.52686  0.90802  0.03826  Biso   1.000  C
  C57      1.0000 0.38849  0.38849  0.11151  Biso   1.000  C
  C58      1.0000 0.44624  0.44624  0.05376  Biso   1.000  C
  C59      1.0000 0.11151  0.11151  0.38849  Biso   1.000  C
  C60      1.0000 0.05376  0.05376  0.44624  Biso   1.000  C
  C61      1.0000 0.38849  0.11151  0.11151  Biso   1.000  C
  C62      1.0000 0.44624  0.05376  0.05376  Biso   1.000  C
  C63      1.0000 0.11151  0.38849  0.38849  Biso   1.000  C
  C64      1.0000 0.05376  0.44624  0.44624  Biso   1.000  C
  C65      1.0000 0.38849  0.11151  0.38849  Biso   1.000  C
  C66      1.0000 0.44624  0.05376  0.44624  Biso   1.000  C
  C67      1.0000 0.11151  0.38849  0.11151  Biso   1.000  C
  C68      1.0000 0.05376  0.44624  0.05376  Biso   1.000  C
  C69      1.0000 0.61151  0.61151  0.88849  Biso   1.000  C
  C70      1.0000 0.55376  0.55376  0.94624  Biso   1.000  C
  C71      1.0000 0.88849  0.88849  0.61151  Biso   1.000  C
  C72      1.0000 0.94624  0.94624  0.55376  Biso   1.000  C
  C73      1.0000 0.88849  0.61151  0.88849  Biso   1.000  C
  C74      1.0000 0.94624  0.55376  0.94624  Biso   1.000  C
  C75      1.0000 0.61151  0.88849  0.61151  Biso   1.000  C
  C76      1.0000 0.55376  0.94624  0.55376  Biso   1.000  C
  C77      1.0000 0.88849  0.61151  0.61151  Biso   1.000  C
  C78      1.0000 0.94624  0.55376  0.55376  Biso   1.000  C
  C79      1.0000 0.61151  0.88849  0.88849  Biso   1.000  C
  C80      1.0000 0.55376  0.94624  0.94624  Biso   1.000  C
  C81      1.0000 0.25000  0.25000  0.25000  Biso   1.000  C
  C82      1.0000 0.75000  0.75000  0.75000  Biso   1.000  C
  C83      1.0000 0.36620  0.36620  0.07286  Biso   1.000  C
  C84      1.0000 0.36620  0.36620  0.19474  Biso   1.000  C
  C85      1.0000 0.07286  0.19474  0.36620  Biso   1.000  C
  C86      1.0000 0.19474  0.07286  0.36620  Biso   1.000  C
  C87      1.0000 0.36620  0.07286  0.19474  Biso   1.000  C
  C88      1.0000 0.36620  0.19474  0.07286  Biso   1.000  C
  C89      1.0000 0.07286  0.36620  0.36620  Biso   1.000  C
  C90      1.0000 0.19474  0.36620  0.36620  Biso   1.000  C
  C91      1.0000 0.36620  0.19474  0.36620  Biso   1.000  C
  C92      1.0000 0.36620  0.07286  0.36620  Biso   1.000  C
  C93      1.0000 0.07286  0.36620  0.19474  Biso   1.000  C
  C94      1.0000 0.19474  0.36620  0.07286  Biso   1.000  C
  C95      1.0000 0.63380  0.63380  0.92714  Biso   1.000  C
  C96      1.0000 0.63380  0.63380  0.80526  Biso   1.000  C
  C97      1.0000 0.80526  0.92714  0.63380  Biso   1.000  C
  C98      1.0000 0.92714  0.80526  0.63380  Biso   1.000  C
  C99      1.0000 0.92714  0.63380  0.80526  Biso   1.000  C
  C100     1.0000 0.80526  0.63380  0.92714  Biso   1.000  C
  C101     1.0000 0.63380  0.92714  0.63380  Biso   1.000  C
  C102     1.0000 0.63380  0.80526  0.63380  Biso   1.000  C
  C103     1.0000 0.80526  0.63380  0.63380  Biso   1.000  C
  C104     1.0000 0.92714  0.63380  0.63380  Biso   1.000  C
  C105     1.0000 0.63380  0.92714  0.80526  Biso   1.000  C
  C106     1.0000 0.63380  0.80526  0.92714  Biso   1.000  C
  O1       1.0000 0.98296  0.59398  0.26182  Biso   1.000  O
  O2       1.0000 0.98291  0.59403  0.43249  Biso   1.000  O
  O3       1.0000 0.98296  0.76470  0.26182  Biso   1.000  O
  O4       1.0000 0.15362  0.59403  0.26177  Biso   1.000  O
  O5       1.0000 0.57583  0.18695  0.83957  Biso   1.000  O
  O6       1.0000 0.57588  0.18691  0.66890  Biso   1.000  O
  O7       1.0000 0.57583  0.01624  0.83957  Biso   1.000  O
  O8       1.0000 0.40516  0.18690  0.83962  Biso   1.000  O
  O9       1.0000 0.80619  0.41628  0.45968  Biso   1.000  O
  O10      1.0000 0.81934  0.79208  0.06972  Biso   1.000  O
  O11      1.0000 0.19596  0.41567  0.07071  Biso   1.000  O
  O12      1.0000 0.80521  0.41726  0.58909  Biso   1.000  O
  O13      1.0000 0.19615  0.41529  0.59009  Biso   1.000  O
  O14      1.0000 0.81973  0.79189  0.58890  Biso   1.000  O
  O15      1.0000 0.19595  0.93643  0.06993  Biso   1.000  O
  O16      1.0000 0.80599  0.93743  0.06795  Biso   1.000  O
  O17      1.0000 0.80697  0.93626  0.45969  Biso   1.000  O
  O18      1.0000 0.34048  0.79187  0.06895  Biso   1.000  O
  O19      1.0000 0.32635  0.41706  0.45989  Biso   1.000  O
  O20      1.0000 0.32517  0.41803  0.06835  Biso   1.000  O
  O21      1.0000 0.75260  0.36465  0.64170  Biso   1.000  O
  O22      1.0000 0.75458  0.98884  0.01654  Biso   1.000  O
  O23      1.0000 0.37796  0.36525  0.01556  Biso   1.000  O
  O24      1.0000 0.75358  0.36367  0.51229  Biso   1.000  O
  O25      1.0000 0.37776  0.36565  0.51130  Biso   1.000  O
  O26      1.0000 0.75418  0.98905  0.51248  Biso   1.000  O
  O27      1.0000 0.37797  0.85964  0.01633  Biso   1.000  O
  O28      1.0000 0.75281  0.85864  0.01831  Biso   1.000  O
  O29      1.0000 0.75182  0.85983  0.64169  Biso   1.000  O
  O30      1.0000 0.24856  0.98904  0.01732  Biso   1.000  O
  O31      1.0000 0.24756  0.36388  0.64150  Biso   1.000  O
  O32      1.0000 0.24875  0.36288  0.01792  Biso   1.000  O
  O33      1.0000 0.83238  0.44345  0.49770  Biso   1.000  O
  O34      1.0000 0.89017  0.50125  0.43991  Biso   1.000  O
  O35      1.0000 0.24910  0.82989  0.09612  Biso   1.000  O
  O36      1.0000 0.16105  0.77212  0.16903  Biso   1.000  O
  O37      1.0000 0.72641  0.33748  0.60368  Biso   1.000  O
  O38      1.0000 0.66862  0.27969  0.66147  Biso   1.000  O
  O39      1.0000 0.33995  0.95102  0.99015  Biso   1.000  O
  O40      1.0000 0.39774  0.00881  0.93235  Biso   1.000  O
  O41      1.0000 0.23417  0.44324  0.09592  Biso   1.000  O
  O42      1.0000 0.16152  0.50078  0.16856  Biso   1.000  O
  O43      1.0000 0.83218  0.84526  0.49790  Biso   1.000  O
  O44      1.0000 0.88970  0.77259  0.44038  Biso   1.000  O
  O45      1.0000 0.33975  0.33767  0.99034  Biso   1.000  O
  O46      1.0000 0.39727  0.28016  0.93283  Biso   1.000  O
  O47      1.0000 0.72660  0.95083  0.60348  Biso   1.000  O
  O48      1.0000 0.66909  0.00835  0.66100  Biso   1.000  O
  O49      1.0000 0.83199  0.84544  0.09573  Biso   1.000  O
  O50      1.0000 0.88950  0.77279  0.16836  Biso   1.000  O
  O51      1.0000 0.23436  0.44306  0.49810  Biso   1.000  O
  O52      1.0000 0.16172  0.50058  0.44058  Biso   1.000  O
  O53      1.0000 0.72680  0.95063  0.99054  Biso   1.000  O
  O54      1.0000 0.66929  0.00814  0.93302  Biso   1.000  O
  O55      1.0000 0.33955  0.33788  0.60328  Biso   1.000  O
  O56      1.0000 0.39707  0.28036  0.66080  Biso   1.000  O
  O57      1.0000 0.91085  0.52351  0.35695  Biso   1.000  O
  O58      1.0000 0.07891  0.52160  0.19129  Biso   1.000  O
  O59      1.0000 0.91127  0.68875  0.19093  Biso   1.000  O
  O60      1.0000 0.91243  0.52193  0.47994  Biso   1.000  O
  O61      1.0000 0.91052  0.68998  0.47944  Biso   1.000  O
  O62      1.0000 0.07767  0.52234  0.48029  Biso   1.000  O
  O63      1.0000 0.07808  0.81215  0.18971  Biso   1.000  O
  O64      1.0000 0.91243  0.81165  0.35777  Biso   1.000  O
  O65      1.0000 0.91207  0.81250  0.19013  Biso   1.000  O
  O66      1.0000 0.20108  0.68916  0.19129  Biso   1.000  O
  O67      1.0000 0.20058  0.52351  0.18938  Biso   1.000  O
  O68      1.0000 0.20143  0.52315  0.35653  Biso   1.000  O
  O69      1.0000 0.64793  0.25743  0.74444  Biso   1.000  O
  O70      1.0000 0.47988  0.25934  0.91009  Biso   1.000  O
  O71      1.0000 0.64752  0.09219  0.91045  Biso   1.000  O
  O72      1.0000 0.64636  0.25901  0.62145  Biso   1.000  O
  O73      1.0000 0.64827  0.09096  0.62194  Biso   1.000  O
  O74      1.0000 0.48111  0.25860  0.62109  Biso   1.000  O
  O75      1.0000 0.48070  0.96879  0.91167  Biso   1.000  O
  O76      1.0000 0.64636  0.96928  0.74361  Biso   1.000  O
  O77      1.0000 0.64671  0.96843  0.91126  Biso   1.000  O
  O78      1.0000 0.35771  0.09178  0.91009  Biso   1.000  O
  O79      1.0000 0.35820  0.25743  0.91201  Biso   1.000  O
  O80      1.0000 0.35736  0.25779  0.74485  Biso   1.000  O
  O81      1.0000 0.02561  0.63669  0.30447  Biso   1.000  O
  O82      1.0000 0.53318  0.14425  0.79691  Biso   1.000  O
  O83      1.0000 0.84049  0.71664  0.09233  Biso   1.000  O
  O84      1.0000 0.82859  0.96912  0.08910  Biso   1.000  O
  O85      1.0000 0.73343  0.06428  0.99394  Biso   1.000  O
  O86      1.0000 0.74533  0.81179  0.99717  Biso   1.000  O
  O87      1.0000 0.82982  0.96795  0.38426  Biso   1.000  O
  O88      1.0000 0.73329  0.06448  0.48078  Biso   1.000  O
  O89      1.0000 0.12053  0.43656  0.09356  Biso   1.000  O
  O90      1.0000 0.21705  0.34003  0.99703  Biso   1.000  O
  O91      1.0000 0.82667  0.43954  0.62080  Biso   1.000  O
  O92      1.0000 0.12071  0.43643  0.62178  Biso   1.000  O
  O93      1.0000 0.21686  0.06448  0.99586  Biso   1.000  O
  O94      1.0000 0.21587  0.34127  0.71694  Biso   1.000  O
  O95      1.0000 0.84062  0.71646  0.62060  Biso   1.000  O
  O96      1.0000 0.74409  0.81298  0.71713  Biso   1.000  O
  O97      1.0000 0.35687  0.44088  0.08924  Biso   1.000  O
  O98      1.0000 0.45339  0.34436  0.99271  Biso   1.000  O
  O99      1.0000 0.46854  0.81278  0.99406  Biso   1.000  O
  O100     1.0000 0.35804  0.43966  0.38444  Biso   1.000  O
  O101     1.0000 0.45320  0.34451  0.47960  Biso   1.000  O
  O102     1.0000 0.37219  0.71643  0.09041  Biso   1.000  O
  O103     1.0000 0.73212  0.34139  0.48059  Biso   1.000  O
  O104     1.0000 0.82847  0.43774  0.38424  Biso   1.000  O
  O105     1.0000 0.73032  0.34319  0.71715  Biso   1.000  O
  O106     1.0000 0.12051  0.96813  0.09221  Biso   1.000  O
