data_image0
_cell_length_a       18.2205
_cell_length_b       18.2205
_cell_length_c       18.2205
_cell_angle_alpha    60
_cell_angle_beta     60
_cell_angle_gamma    60

loop_
  _atom_site_label
  _atom_site_occupancy
  _atom_site_fract_x
  _atom_site_fract_y
  _atom_site_fract_z
  _atom_site_thermal_displace_type
  _atom_site_B_iso_or_equiv
  _atom_site_type_symbol
  Zn1      1.0000 0.29361  0.29361  0.11917  Biso   1.000  Zn
  Zn2      1.0000 0.29361  0.29361  0.29361  Biso   1.000  Zn
  Zn3      1.0000 0.11917  0.29361  0.29361  Biso   1.000  Zn
  Zn4      1.0000 0.29361  0.11917  0.29361  Biso   1.000  Zn
  Zn5      1.0000 0.70639  0.70639  0.88083  Biso   1.000  Zn
  Zn6      1.0000 0.70639  0.70639  0.70639  Biso   1.000  Zn
  Zn7      1.0000 0.70639  0.88083  0.70639  Biso   1.000  Zn
  Zn8      1.0000 0.88083  0.70639  0.70639  Biso   1.000  Zn
  H1       1.0000 0.45580  0.45580  0.93700  Biso   1.000  H
  H2       1.0000 0.45580  0.45580  0.15140  Biso   1.000  H
  H3       1.0000 0.93700  0.15140  0.45580  Biso   1.000  H
  H4       1.0000 0.15140  0.93700  0.45580  Biso   1.000  H
  H5       1.0000 0.45580  0.93700  0.15140  Biso   1.000  H
  H6       1.0000 0.45580  0.15140  0.93700  Biso   1.000  H
  H7       1.0000 0.93700  0.45580  0.45580  Biso   1.000  H
  H8       1.0000 0.15140  0.45580  0.45580  Biso   1.000  H
  H9       1.0000 0.45580  0.15140  0.45580  Biso   1.000  H
  H10      1.0000 0.45580  0.93700  0.45580  Biso   1.000  H
  H11      1.0000 0.93700  0.45580  0.15140  Biso   1.000  H
  H12      1.0000 0.15140  0.45580  0.93700  Biso   1.000  H
  H13      1.0000 0.54420  0.54420  0.06300  Biso   1.000  H
  H14      1.0000 0.54420  0.54420  0.84860  Biso   1.000  H
  H15      1.0000 0.84860  0.06300  0.54420  Biso   1.000  H
  H16      1.0000 0.06300  0.84860  0.54420  Biso   1.000  H
  H17      1.0000 0.06300  0.54420  0.84860  Biso   1.000  H
  H18      1.0000 0.84860  0.54420  0.06300  Biso   1.000  H
  H19      1.0000 0.54420  0.06300  0.54420  Biso   1.000  H
  H20      1.0000 0.54420  0.84860  0.54420  Biso   1.000  H
  H21      1.0000 0.84860  0.54420  0.54420  Biso   1.000  H
  H22      1.0000 0.06300  0.54420  0.54420  Biso   1.000  H
  H23      1.0000 0.54420  0.06300  0.84860  Biso   1.000  H
  H24      1.0000 0.54420  0.84860  0.06300  Biso   1.000  H
  C1       1.0000 0.47350  0.47350  0.96390  Biso   1.000  C
  C2       1.0000 0.47350  0.47350  0.08910  Biso   1.000  C
  C3       1.0000 0.96390  0.08910  0.47350  Biso   1.000  C
  C4       1.0000 0.08910  0.96390  0.47350  Biso   1.000  C
  C5       1.0000 0.47350  0.96390  0.08910  Biso   1.000  C
  C6       1.0000 0.47350  0.08910  0.96390  Biso   1.000  C
  C7       1.0000 0.96390  0.47350  0.47350  Biso   1.000  C
  C8       1.0000 0.08910  0.47350  0.47350  Biso   1.000  C
  C9       1.0000 0.47350  0.08910  0.47350  Biso   1.000  C
  C10      1.0000 0.47350  0.96390  0.47350  Biso   1.000  C
  C11      1.0000 0.96390  0.47350  0.08910  Biso   1.000  C
  C12      1.0000 0.08910  0.47350  0.96390  Biso   1.000  C
  C13      1.0000 0.52650  0.52650  0.03610  Biso   1.000  C
  C14      1.0000 0.52650  0.52650  0.91090  Biso   1.000  C
  C15      1.0000 0.91090  0.03610  0.52650  Biso   1.000  C
  C16      1.0000 0.03610  0.91090  0.52650  Biso   1.000  C
  C17      1.0000 0.03610  0.52650  0.91090  Biso   1.000  C
  C18      1.0000 0.91090  0.52650  0.03610  Biso   1.000  C
  C19      1.0000 0.52650  0.03610  0.52650  Biso   1.000  C
  C20      1.0000 0.52650  0.91090  0.52650  Biso   1.000  C
  C21      1.0000 0.91090  0.52650  0.52650  Biso   1.000  C
  C22      1.0000 0.03610  0.52650  0.52650  Biso   1.000  C
  C23      1.0000 0.52650  0.03610  0.91090  Biso   1.000  C
  C24      1.0000 0.52650  0.91090  0.03610  Biso   1.000  C
  C25      1.0000 0.38850  0.38850  0.11150  Biso   1.000  C
  C26      1.0000 0.44660  0.44660  0.05340  Biso   1.000  C
  C27      1.0000 0.11150  0.11150  0.38850  Biso   1.000  C
  C28      1.0000 0.05340  0.05340  0.44660  Biso   1.000  C
  C29      1.0000 0.38850  0.11150  0.11150  Biso   1.000  C
  C30      1.0000 0.44660  0.05340  0.05340  Biso   1.000  C
  C31      1.0000 0.11150  0.38850  0.38850  Biso   1.000  C
  C32      1.0000 0.05340  0.44660  0.44660  Biso   1.000  C
  C33      1.0000 0.38850  0.11150  0.38850  Biso   1.000  C
  C34      1.0000 0.44660  0.05340  0.44660  Biso   1.000  C
  C35      1.0000 0.11150  0.38850  0.11150  Biso   1.000  C
  C36      1.0000 0.05340  0.44660  0.05340  Biso   1.000  C
  C37      1.0000 0.61150  0.61150  0.88850  Biso   1.000  C
  C38      1.0000 0.55340  0.55340  0.94660  Biso   1.000  C
  C39      1.0000 0.88850  0.88850  0.61150  Biso   1.000  C
  C40      1.0000 0.94660  0.94660  0.55340  Biso   1.000  C
  C41      1.0000 0.88850  0.61150  0.88850  Biso   1.000  C
  C42      1.0000 0.94660  0.55340  0.94660  Biso   1.000  C
  C43      1.0000 0.61150  0.88850  0.61150  Biso   1.000  C
  C44      1.0000 0.55340  0.94660  0.55340  Biso   1.000  C
  C45      1.0000 0.88850  0.61150  0.61150  Biso   1.000  C
  C46      1.0000 0.94660  0.55340  0.55340  Biso   1.000  C
  C47      1.0000 0.61150  0.88850  0.88850  Biso   1.000  C
  C48      1.0000 0.55340  0.94660  0.94660  Biso   1.000  C
  O1       1.0000 0.25000  0.25000  0.25000  Biso   1.000  O
  O2       1.0000 0.75000  0.75000  0.75000  Biso   1.000  O
  O3       1.0000 0.36609  0.36609  0.07351  Biso   1.000  O
  O4       1.0000 0.36609  0.36609  0.19431  Biso   1.000  O
  O5       1.0000 0.07351  0.19431  0.36609  Biso   1.000  O
  O6       1.0000 0.19431  0.07351  0.36609  Biso   1.000  O
  O7       1.0000 0.36609  0.07351  0.19431  Biso   1.000  O
  O8       1.0000 0.36609  0.19431  0.07351  Biso   1.000  O
  O9       1.0000 0.07351  0.36609  0.36609  Biso   1.000  O
  O10      1.0000 0.19431  0.36609  0.36609  Biso   1.000  O
  O11      1.0000 0.36609  0.19431  0.36609  Biso   1.000  O
  O12      1.0000 0.36609  0.07351  0.36609  Biso   1.000  O
  O13      1.0000 0.07351  0.36609  0.19431  Biso   1.000  O
  O14      1.0000 0.19431  0.36609  0.07351  Biso   1.000  O
  O15      1.0000 0.63391  0.63391  0.92649  Biso   1.000  O
  O16      1.0000 0.63391  0.63391  0.80569  Biso   1.000  O
  O17      1.0000 0.80569  0.92649  0.63391  Biso   1.000  O
  O18      1.0000 0.92649  0.80569  0.63391  Biso   1.000  O
  O19      1.0000 0.92649  0.63391  0.80569  Biso   1.000  O
  O20      1.0000 0.80569  0.63391  0.92649  Biso   1.000  O
  O21      1.0000 0.63391  0.92649  0.63391  Biso   1.000  O
  O22      1.0000 0.63391  0.80569  0.63391  Biso   1.000  O
  O23      1.0000 0.80569  0.63391  0.63391  Biso   1.000  O
  O24      1.0000 0.92649  0.63391  0.63391  Biso   1.000  O
  O25      1.0000 0.63391  0.92649  0.80569  Biso   1.000  O
  O26      1.0000 0.63391  0.80569  0.92649  Biso   1.000  O
  Zn9      1.0000 0.92566  0.92458  0.06696  Biso   1.000  Zn
  Zn10     1.0000 0.09761  0.92454  0.89501  Biso   1.000  Zn
  Zn11     1.0000 0.09766  0.75259  0.06696  Biso   1.000  Zn
  Zn12     1.0000 0.09761  0.92453  0.06701  Biso   1.000  Zn
  Zn13     1.0000 0.68747  0.33467  0.48487  Biso   1.000  Zn
  Zn14     1.0000 0.51552  0.33472  0.65682  Biso   1.000  Zn
  Zn15     1.0000 0.51547  0.50666  0.48487  Biso   1.000  Zn
  Zn16     1.0000 0.51552  0.33472  0.48482  Biso   1.000  Zn
  C49      1.0000 0.76788  0.10362  0.86761  Biso   1.000  C
  C50      1.0000 0.76687  0.72500  0.25298  Biso   1.000  C
  C51      1.0000 0.76806  0.10424  0.25199  Biso   1.000  C
  C52      1.0000 0.89826  0.10263  0.73722  Biso   1.000  C
  C53      1.0000 0.28364  0.10462  0.73622  Biso   1.000  C
  C54      1.0000 0.28265  0.72519  0.73741  Biso   1.000  C
  C55      1.0000 0.28442  0.58707  0.25277  Biso   1.000  C
  C56      1.0000 0.89805  0.58607  0.25477  Biso   1.000  C
  C57      1.0000 0.28503  0.58725  0.86760  Biso   1.000  C
  C58      1.0000 0.28343  0.72521  0.25376  Biso   1.000  C
  C59      1.0000 0.28543  0.10283  0.86740  Biso   1.000  C
  C60      1.0000 0.89825  0.10185  0.25437  Biso   1.000  C
  C61      1.0000 0.84525  0.15563  0.68422  Biso   1.000  C
  C62      1.0000 0.84625  0.53427  0.30656  Biso   1.000  C
  C63      1.0000 0.84506  0.15504  0.30756  Biso   1.000  C
  C64      1.0000 0.71487  0.15662  0.81460  Biso   1.000  C
  C65      1.0000 0.33722  0.15463  0.81560  Biso   1.000  C
  C66      1.0000 0.33821  0.53406  0.81441  Biso   1.000  C
  C67      1.0000 0.33643  0.66445  0.30677  Biso   1.000  C
  C68      1.0000 0.71508  0.66545  0.30478  Biso   1.000  C
  C69      1.0000 0.33583  0.66425  0.68423  Biso   1.000  C
  C70      1.0000 0.33743  0.53406  0.30578  Biso   1.000  C
  C71      1.0000 0.33544  0.15642  0.68442  Biso   1.000  C
  C72      1.0000 0.71488  0.15742  0.30517  Biso   1.000  C
  C73      1.0000 0.85995  0.07624  0.82930  Biso   1.000  C
  C74      1.0000 0.91818  0.01802  0.88752  Biso   1.000  C
  C75      1.0000 0.25704  0.68690  0.22639  Biso   1.000  C
  C76      1.0000 0.19110  0.74510  0.16044  Biso   1.000  C
  C77      1.0000 0.75318  0.18301  0.72253  Biso   1.000  C
  C78      1.0000 0.69496  0.24124  0.66430  Biso   1.000  C
  C79      1.0000 0.36381  0.57237  0.33316  Biso   1.000  C
  C80      1.0000 0.42204  0.51415  0.39138  Biso   1.000  C
  C81      1.0000 0.85975  0.07645  0.22659  Biso   1.000  C
  C82      1.0000 0.91770  0.01849  0.16092  Biso   1.000  C
  C83      1.0000 0.25725  0.67893  0.82910  Biso   1.000  C
  C84      1.0000 0.19157  0.74463  0.88705  Biso   1.000  C
  C85      1.0000 0.75338  0.18282  0.33296  Biso   1.000  C
  C86      1.0000 0.69543  0.24077  0.39091  Biso   1.000  C
  C87      1.0000 0.36362  0.57256  0.72273  Biso   1.000  C
  C88      1.0000 0.42156  0.51462  0.66478  Biso   1.000  C
  C89      1.0000 0.85955  0.67875  0.22678  Biso   1.000  C
  C90      1.0000 0.91751  0.74443  0.16112  Biso   1.000  C
  C91      1.0000 0.25744  0.07664  0.82890  Biso   1.000  C
  C92      1.0000 0.19177  0.01869  0.88685  Biso   1.000  C
  C93      1.0000 0.75358  0.57277  0.33276  Biso   1.000  C
  C94      1.0000 0.69563  0.51482  0.39071  Biso   1.000  C
  C95      1.0000 0.36342  0.18261  0.72292  Biso   1.000  C
  C96      1.0000 0.42137  0.24056  0.66498  Biso   1.000  C
  O27      1.0000 0.87785  0.99559  0.97111  Biso   1.000  O
  O28      1.0000 0.87835  0.99751  0.13802  Biso   1.000  O
  O29      1.0000 0.87750  0.82911  0.13837  Biso   1.000  O
  O30      1.0000 0.00177  0.99718  0.84720  Biso   1.000  O
  O31      1.0000 0.16867  0.82786  0.84769  Biso   1.000  O
  O32      1.0000 0.16902  0.99676  0.84684  Biso   1.000  O
  O33      1.0000 0.16867  0.70478  0.13960  Biso   1.000  O
  O34      1.0000 0.17059  0.70528  0.97028  Biso   1.000  O
  O35      1.0000 0.00219  0.70442  0.13919  Biso   1.000  O
  O36      1.0000 0.17026  0.82869  0.13802  Biso   1.000  O
  O37      1.0000 0.00094  0.99559  0.13994  Biso   1.000  O
  O38      1.0000 0.16984  0.99595  0.97153  Biso   1.000  O
  O39      1.0000 0.73528  0.26366  0.58071  Biso   1.000  O
  O40      1.0000 0.73478  0.26174  0.41381  Biso   1.000  O
  O41      1.0000 0.73564  0.43014  0.41345  Biso   1.000  O
  O42      1.0000 0.61137  0.26207  0.70463  Biso   1.000  O
  O43      1.0000 0.44447  0.43139  0.70413  Biso   1.000  O
  O44      1.0000 0.44411  0.26249  0.70498  Biso   1.000  O
  O45      1.0000 0.44446  0.55447  0.41222  Biso   1.000  O
  O46      1.0000 0.44254  0.55397  0.58154  Biso   1.000  O
  O47      1.0000 0.61095  0.55483  0.41264  Biso   1.000  O
  O48      1.0000 0.44288  0.43056  0.41381  Biso   1.000  O
  O49      1.0000 0.61220  0.26367  0.41188  Biso   1.000  O
  O50      1.0000 0.44329  0.26331  0.58029  Biso   1.000  O
  O51      1.0000 0.05464  0.88156  0.02398  Biso   1.000  O
  O52      1.0000 0.55850  0.37769  0.52784  Biso   1.000  O
  H25      1.0000 0.73494  0.80101  0.23021  Biso   1.000  H
  H26      1.0000 0.97406  0.55414  0.23346  Biso   1.000  H
  H27      1.0000 0.87819  0.45827  0.32934  Biso   1.000  H
  H28      1.0000 0.63907  0.70513  0.32608  Biso   1.000  H
  H29      1.0000 0.26398  0.55531  0.94360  Biso   1.000  H
  H30      1.0000 0.36124  0.45807  0.84634  Biso   1.000  H
  H31      1.0000 0.73613  0.08319  0.22897  Biso   1.000  H
  H32      1.0000 0.63888  0.18044  0.32622  Biso   1.000  H
  H33      1.0000 0.97427  0.08018  0.70528  Biso   1.000  H
  H34      1.0000 0.26087  0.08332  0.70429  Biso   1.000  H
  H35      1.0000 0.35987  0.45806  0.32740  Biso   1.000  H
  H36      1.0000 0.35674  0.17919  0.60842  Biso   1.000  H
  H37      1.0000 0.25963  0.80118  0.70548  Biso   1.000  H
  H38      1.0000 0.35688  0.70394  0.60823  Biso   1.000  H
  H39      1.0000 0.97425  0.07884  0.23332  Biso   1.000  H
  H40      1.0000 0.87700  0.17608  0.33058  Biso   1.000  H
  H41      1.0000 0.35806  0.70414  0.32922  Biso   1.000  H
  H42      1.0000 0.26412  0.08006  0.94341  Biso   1.000  H
  H43      1.0000 0.36000  0.17593  0.84754  Biso   1.000  H
  H44      1.0000 0.26098  0.80122  0.23214  Biso   1.000  H
  H45      1.0000 0.63886  0.17907  0.84654  Biso   1.000  H
  H46      1.0000 0.73594  0.08199  0.94362  Biso   1.000  H
  H47      1.0000 0.87720  0.17726  0.60821  Biso   1.000  H
  H48      1.0000 0.26280  0.55513  0.23033  Biso   1.000  H
