data_image0
_cell_length_a       18.2662
_cell_length_b       18.2662
_cell_length_c       18.2662
_cell_angle_alpha    60
_cell_angle_beta     60
_cell_angle_gamma    60

loop_
  _atom_site_label
  _atom_site_occupancy
  _atom_site_fract_x
  _atom_site_fract_y
  _atom_site_fract_z
  _atom_site_thermal_displace_type
  _atom_site_B_iso_or_equiv
  _atom_site_type_symbol
  Zn1      1.0000 0.29353  0.29352  0.11943  Biso   1.000  Zn
  Zn2      1.0000 0.29353  0.29352  0.29352  Biso   1.000  Zn
  Zn3      1.0000 0.11944  0.29352  0.29352  Biso   1.000  Zn
  Zn4      1.0000 0.29353  0.11943  0.29352  Biso   1.000  Zn
  Zn5      1.0000 0.70647  0.70648  0.88057  Biso   1.000  Zn
  Zn6      1.0000 0.70647  0.70648  0.70648  Biso   1.000  Zn
  Zn7      1.0000 0.70647  0.88057  0.70648  Biso   1.000  Zn
  Zn8      1.0000 0.88056  0.70648  0.70648  Biso   1.000  Zn
  H1       1.0000 0.45570  0.45570  0.93590  Biso   1.000  H
  H2       1.0000 0.45570  0.45570  0.15270  Biso   1.000  H
  H3       1.0000 0.93590  0.15270  0.45570  Biso   1.000  H
  H4       1.0000 0.15270  0.93590  0.45570  Biso   1.000  H
  H5       1.0000 0.45570  0.93590  0.15270  Biso   1.000  H
  H6       1.0000 0.45570  0.15270  0.93590  Biso   1.000  H
  H7       1.0000 0.93590  0.45570  0.45570  Biso   1.000  H
  H8       1.0000 0.15270  0.45570  0.45570  Biso   1.000  H
  H9       1.0000 0.45570  0.15270  0.45570  Biso   1.000  H
  H10      1.0000 0.45570  0.93590  0.45570  Biso   1.000  H
  H11      1.0000 0.93590  0.45570  0.15270  Biso   1.000  H
  H12      1.0000 0.15270  0.45570  0.93590  Biso   1.000  H
  H13      1.0000 0.54430  0.54430  0.06410  Biso   1.000  H
  H14      1.0000 0.54430  0.54430  0.84730  Biso   1.000  H
  H15      1.0000 0.84730  0.06410  0.54430  Biso   1.000  H
  H16      1.0000 0.06410  0.84730  0.54430  Biso   1.000  H
  H17      1.0000 0.06410  0.54430  0.84730  Biso   1.000  H
  H18      1.0000 0.84730  0.54430  0.06410  Biso   1.000  H
  H19      1.0000 0.54430  0.06410  0.54430  Biso   1.000  H
  H20      1.0000 0.54430  0.84730  0.54430  Biso   1.000  H
  H21      1.0000 0.84730  0.54430  0.54430  Biso   1.000  H
  H22      1.0000 0.06410  0.54430  0.54430  Biso   1.000  H
  H23      1.0000 0.54430  0.06410  0.84730  Biso   1.000  H
  H24      1.0000 0.54430  0.84730  0.06410  Biso   1.000  H
  C1       1.0000 0.47342  0.47342  0.96246  Biso   1.000  C
  C2       1.0000 0.47342  0.47342  0.09070  Biso   1.000  C
  C3       1.0000 0.96246  0.09070  0.47342  Biso   1.000  C
  C4       1.0000 0.09070  0.96246  0.47342  Biso   1.000  C
  C5       1.0000 0.47342  0.96246  0.09070  Biso   1.000  C
  C6       1.0000 0.47342  0.09070  0.96246  Biso   1.000  C
  C7       1.0000 0.96246  0.47342  0.47342  Biso   1.000  C
  C8       1.0000 0.09070  0.47342  0.47342  Biso   1.000  C
  C9       1.0000 0.47342  0.09070  0.47342  Biso   1.000  C
  C10      1.0000 0.47342  0.96246  0.47342  Biso   1.000  C
  C11      1.0000 0.96246  0.47342  0.09070  Biso   1.000  C
  C12      1.0000 0.09070  0.47342  0.96246  Biso   1.000  C
  C13      1.0000 0.52658  0.52658  0.03754  Biso   1.000  C
  C14      1.0000 0.52658  0.52658  0.90930  Biso   1.000  C
  C15      1.0000 0.90930  0.03754  0.52658  Biso   1.000  C
  C16      1.0000 0.03754  0.90930  0.52658  Biso   1.000  C
  C17      1.0000 0.03754  0.52658  0.90930  Biso   1.000  C
  C18      1.0000 0.90930  0.52658  0.03754  Biso   1.000  C
  C19      1.0000 0.52658  0.03754  0.52658  Biso   1.000  C
  C20      1.0000 0.52658  0.90930  0.52658  Biso   1.000  C
  C21      1.0000 0.90930  0.52658  0.52658  Biso   1.000  C
  C22      1.0000 0.03754  0.52658  0.52658  Biso   1.000  C
  C23      1.0000 0.52658  0.03754  0.90930  Biso   1.000  C
  C24      1.0000 0.52658  0.90930  0.03754  Biso   1.000  C
  C25      1.0000 0.38858  0.38858  0.11142  Biso   1.000  C
  C26      1.0000 0.44625  0.44625  0.05375  Biso   1.000  C
  C27      1.0000 0.11142  0.11142  0.38858  Biso   1.000  C
  C28      1.0000 0.05375  0.05375  0.44625  Biso   1.000  C
  C29      1.0000 0.38858  0.11142  0.11142  Biso   1.000  C
  C30      1.0000 0.44625  0.05375  0.05375  Biso   1.000  C
  C31      1.0000 0.11142  0.38858  0.38858  Biso   1.000  C
  C32      1.0000 0.05375  0.44625  0.44625  Biso   1.000  C
  C33      1.0000 0.38858  0.11142  0.38858  Biso   1.000  C
  C34      1.0000 0.44625  0.05375  0.44625  Biso   1.000  C
  C35      1.0000 0.11142  0.38858  0.11142  Biso   1.000  C
  C36      1.0000 0.05375  0.44625  0.05375  Biso   1.000  C
  C37      1.0000 0.61142  0.61142  0.88858  Biso   1.000  C
  C38      1.0000 0.55375  0.55375  0.94625  Biso   1.000  C
  C39      1.0000 0.88858  0.88858  0.61142  Biso   1.000  C
  C40      1.0000 0.94625  0.94625  0.55375  Biso   1.000  C
  C41      1.0000 0.88858  0.61142  0.88858  Biso   1.000  C
  C42      1.0000 0.94625  0.55375  0.94625  Biso   1.000  C
  C43      1.0000 0.61142  0.88858  0.61142  Biso   1.000  C
  C44      1.0000 0.55375  0.94625  0.55375  Biso   1.000  C
  C45      1.0000 0.88858  0.61142  0.61142  Biso   1.000  C
  C46      1.0000 0.94625  0.55375  0.55375  Biso   1.000  C
  C47      1.0000 0.61142  0.88858  0.88858  Biso   1.000  C
  C48      1.0000 0.55375  0.94625  0.94625  Biso   1.000  C
  O1       1.0000 0.25000  0.25000  0.25000  Biso   1.000  O
  O2       1.0000 0.75000  0.75000  0.75000  Biso   1.000  O
  O3       1.0000 0.36617  0.36617  0.07287  Biso   1.000  O
  O4       1.0000 0.36617  0.36617  0.19479  Biso   1.000  O
  O5       1.0000 0.07287  0.19479  0.36617  Biso   1.000  O
  O6       1.0000 0.19479  0.07287  0.36617  Biso   1.000  O
  O7       1.0000 0.36617  0.07287  0.19479  Biso   1.000  O
  O8       1.0000 0.36617  0.19479  0.07287  Biso   1.000  O
  O9       1.0000 0.07287  0.36617  0.36617  Biso   1.000  O
  O10      1.0000 0.19479  0.36617  0.36617  Biso   1.000  O
  O11      1.0000 0.36617  0.19479  0.36617  Biso   1.000  O
  O12      1.0000 0.36617  0.07287  0.36617  Biso   1.000  O
  O13      1.0000 0.07287  0.36617  0.19479  Biso   1.000  O
  O14      1.0000 0.19479  0.36617  0.07287  Biso   1.000  O
  O15      1.0000 0.63383  0.63383  0.92713  Biso   1.000  O
  O16      1.0000 0.63383  0.63383  0.80521  Biso   1.000  O
  O17      1.0000 0.80521  0.92713  0.63383  Biso   1.000  O
  O18      1.0000 0.92713  0.80521  0.63383  Biso   1.000  O
  O19      1.0000 0.92713  0.63383  0.80521  Biso   1.000  O
  O20      1.0000 0.80521  0.63383  0.92713  Biso   1.000  O
  O21      1.0000 0.63383  0.92713  0.63383  Biso   1.000  O
  O22      1.0000 0.63383  0.80521  0.63383  Biso   1.000  O
  O23      1.0000 0.80521  0.63383  0.63383  Biso   1.000  O
  O24      1.0000 0.92713  0.63383  0.63383  Biso   1.000  O
  O25      1.0000 0.63383  0.92713  0.80521  Biso   1.000  O
  O26      1.0000 0.63383  0.80521  0.92713  Biso   1.000  O
  Zn9      1.0000 0.98787  0.59298  0.25999  Biso   1.000  Zn
  Zn10     1.0000 0.98782  0.59302  0.43108  Biso   1.000  Zn
  Zn11     1.0000 0.98787  0.76411  0.25999  Biso   1.000  Zn
  Zn12     1.0000 0.15896  0.59303  0.25994  Biso   1.000  Zn
  Zn13     1.0000 0.57973  0.18494  0.83917  Biso   1.000  Zn
  Zn14     1.0000 0.57978  0.18489  0.66808  Biso   1.000  Zn
  Zn15     1.0000 0.57973  0.01380  0.83917  Biso   1.000  Zn
  Zn16     1.0000 0.40864  0.18489  0.83922  Biso   1.000  Zn
  C49      1.0000 0.81066  0.41484  0.45834  Biso   1.000  C
  C50      1.0000 0.82137  0.79156  0.06990  Biso   1.000  C
  C51      1.0000 0.19892  0.41422  0.07088  Biso   1.000  C
  C52      1.0000 0.80968  0.41582  0.58807  Biso   1.000  C
  C53      1.0000 0.19911  0.41384  0.58907  Biso   1.000  C
  C54      1.0000 0.82176  0.79138  0.58789  Biso   1.000  C
  C55      1.0000 0.19891  0.93380  0.07010  Biso   1.000  C
  C56      1.0000 0.81046  0.93480  0.06812  Biso   1.000  C
  C57      1.0000 0.81144  0.93363  0.45835  Biso   1.000  C
  C58      1.0000 0.34133  0.79135  0.06912  Biso   1.000  C
  C59      1.0000 0.32963  0.41562  0.45855  Biso   1.000  C
  C60      1.0000 0.32845  0.41659  0.06851  Biso   1.000  C
  C61      1.0000 0.75694  0.36308  0.64082  Biso   1.000  C
  C62      1.0000 0.75892  0.98633  0.01658  Biso   1.000  C
  C63      1.0000 0.38137  0.36367  0.01559  Biso   1.000  C
  C64      1.0000 0.75792  0.36210  0.51108  Biso   1.000  C
  C65      1.0000 0.38117  0.36408  0.51009  Biso   1.000  C
  C66      1.0000 0.75852  0.98654  0.51127  Biso   1.000  C
  C67      1.0000 0.38138  0.85681  0.01637  Biso   1.000  C
  C68      1.0000 0.75715  0.85581  0.01836  Biso   1.000  C
  C69      1.0000 0.75616  0.85701  0.64081  Biso   1.000  C
  C70      1.0000 0.25165  0.98654  0.01736  Biso   1.000  C
  C71      1.0000 0.25065  0.36230  0.64061  Biso   1.000  C
  C72      1.0000 0.25184  0.36130  0.01796  Biso   1.000  C
  C73      1.0000 0.83692  0.44208  0.49646  Biso   1.000  C
  C74      1.0000 0.89485  0.50001  0.43852  Biso   1.000  C
  C75      1.0000 0.24972  0.82947  0.09636  Biso   1.000  C
  C76      1.0000 0.16640  0.77156  0.16697  Biso   1.000  C
  C77      1.0000 0.73068  0.33584  0.60270  Biso   1.000  C
  C78      1.0000 0.67275  0.27791  0.66063  Biso   1.000  C
  C79      1.0000 0.34326  0.94842  0.99012  Biso   1.000  C
  C80      1.0000 0.40120  0.00636  0.93219  Biso   1.000  C
  C81      1.0000 0.23723  0.44186  0.09616  Biso   1.000  C
  C82      1.0000 0.16687  0.49954  0.16650  Biso   1.000  C
  C83      1.0000 0.83672  0.84240  0.49666  Biso   1.000  C
  C84      1.0000 0.89438  0.77203  0.43900  Biso   1.000  C
  C85      1.0000 0.34307  0.33603  0.99032  Biso   1.000  C
  C86      1.0000 0.40072  0.27837  0.93266  Biso   1.000  C
  C87      1.0000 0.73088  0.94823  0.60250  Biso   1.000  C
  C88      1.0000 0.67322  0.00589  0.66016  Biso   1.000  C
  C89      1.0000 0.83653  0.84258  0.09596  Biso   1.000  C
  C90      1.0000 0.89418  0.77223  0.16630  Biso   1.000  C
  C91      1.0000 0.23742  0.44168  0.49686  Biso   1.000  C
  C92      1.0000 0.16707  0.49934  0.43920  Biso   1.000  C
  C93      1.0000 0.73108  0.94803  0.99052  Biso   1.000  C
  C94      1.0000 0.67342  0.00569  0.93286  Biso   1.000  C
  C95      1.0000 0.34287  0.33624  0.60230  Biso   1.000  C
  C96      1.0000 0.40053  0.27858  0.65996  Biso   1.000  C
  O27      1.0000 0.91559  0.52233  0.35535  Biso   1.000  O
  O28      1.0000 0.08406  0.52041  0.18929  Biso   1.000  O
  O29      1.0000 0.91600  0.68798  0.18893  Biso   1.000  O
  O30      1.0000 0.91717  0.52074  0.47865  Biso   1.000  O
  O31      1.0000 0.91525  0.68921  0.47816  Biso   1.000  O
  O32      1.0000 0.08282  0.52116  0.47900  Biso   1.000  O
  O33      1.0000 0.08323  0.81168  0.18771  Biso   1.000  O
  O34      1.0000 0.91716  0.81119  0.35618  Biso   1.000  O
  O35      1.0000 0.91681  0.81204  0.18812  Biso   1.000  O
  O36      1.0000 0.20653  0.68839  0.18929  Biso   1.000  O
  O37      1.0000 0.20603  0.52233  0.18737  Biso   1.000  O
  O38      1.0000 0.20688  0.52197  0.35494  Biso   1.000  O
  O39      1.0000 0.65201  0.25559  0.74380  Biso   1.000  O
  O40      1.0000 0.48354  0.25750  0.90987  Biso   1.000  O
  O41      1.0000 0.65160  0.08994  0.91023  Biso   1.000  O
  O42      1.0000 0.65043  0.25717  0.62051  Biso   1.000  O
  O43      1.0000 0.65235  0.08870  0.62100  Biso   1.000  O
  O44      1.0000 0.48478  0.25676  0.62015  Biso   1.000  O
  O45      1.0000 0.48437  0.96624  0.91145  Biso   1.000  O
  O46      1.0000 0.65043  0.96673  0.74298  Biso   1.000  O
  O47      1.0000 0.65079  0.96588  0.91104  Biso   1.000  O
  O48      1.0000 0.36107  0.08953  0.90987  Biso   1.000  O
  O49      1.0000 0.36157  0.25559  0.91179  Biso   1.000  O
  O50      1.0000 0.36072  0.25595  0.74422  Biso   1.000  O
  O51      1.0000 0.03063  0.63579  0.30275  Biso   1.000  O
  O52      1.0000 0.53697  0.14213  0.79641  Biso   1.000  O
  H25      1.0000 0.84257  0.71594  0.09256  Biso   1.000  H
  H26      1.0000 0.83312  0.96657  0.08932  Biso   1.000  H
  H27      1.0000 0.73773  0.06196  0.99392  Biso   1.000  H
  H28      1.0000 0.74717  0.81133  0.99716  Biso   1.000  H
  H29      1.0000 0.83435  0.96540  0.38273  Biso   1.000  H
  H30      1.0000 0.73758  0.06216  0.47950  Biso   1.000  H
  H31      1.0000 0.12330  0.43516  0.09379  Biso   1.000  H
  H32      1.0000 0.22007  0.33840  0.99702  Biso   1.000  H
  H33      1.0000 0.83119  0.43815  0.61986  Biso   1.000  H
  H34      1.0000 0.12348  0.43503  0.62084  Biso   1.000  H
  H35      1.0000 0.21987  0.06217  0.99585  Biso   1.000  H
  H36      1.0000 0.21888  0.33964  0.71624  Biso   1.000  H
  H37      1.0000 0.84270  0.71576  0.61966  Biso   1.000  H
  H38      1.0000 0.74594  0.81252  0.71643  Biso   1.000  H
  H39      1.0000 0.36023  0.43950  0.08946  Biso   1.000  H
  H40      1.0000 0.45699  0.34273  0.99269  Biso   1.000  H
  H41      1.0000 0.46970  0.81232  0.99404  Biso   1.000  H
  H42      1.0000 0.36141  0.43828  0.38292  Biso   1.000  H
  H43      1.0000 0.45680  0.34288  0.47831  Biso   1.000  H
  H44      1.0000 0.37311  0.71573  0.09063  Biso   1.000  H
  H45      1.0000 0.73641  0.33976  0.47930  Biso   1.000  H
  H46      1.0000 0.83300  0.43635  0.38271  Biso   1.000  H
  H47      1.0000 0.73460  0.34157  0.71645  Biso   1.000  H
  H48      1.0000 0.12328  0.96558  0.09244  Biso   1.000  H
