data_image0
_cell_length_a       18.0703
_cell_length_b       18.0703
_cell_length_c       18.0703
_cell_angle_alpha    60
_cell_angle_beta     60
_cell_angle_gamma    60

loop_
  _atom_site_label
  _atom_site_occupancy
  _atom_site_fract_x
  _atom_site_fract_y
  _atom_site_fract_z
  _atom_site_thermal_displace_type
  _atom_site_B_iso_or_equiv
  _atom_site_type_symbol
  C1       1.0000 0.29350  0.29350  0.29350  Biso   1.000  C
  C2       1.0000 0.29350  0.29350  0.11950  Biso   1.000  C
  C3       1.0000 0.29350  0.11950  0.29350  Biso   1.000  C
  C4       1.0000 0.11950  0.29350  0.29350  Biso   1.000  C
  C5       1.0000 0.70650  0.70650  0.70650  Biso   1.000  C
  C6       1.0000 0.70650  0.70650  0.88050  Biso   1.000  C
  C7       1.0000 0.88050  0.70650  0.70650  Biso   1.000  C
  C8       1.0000 0.70650  0.88050  0.70650  Biso   1.000  C
  C9       1.0000 0.47340  0.47340  0.96080  Biso   1.000  C
  C10      1.0000 0.47340  0.47340  0.09240  Biso   1.000  C
  C11      1.0000 0.96080  0.09240  0.47340  Biso   1.000  C
  C12      1.0000 0.09240  0.96080  0.47340  Biso   1.000  C
  C13      1.0000 0.47340  0.96080  0.09240  Biso   1.000  C
  C14      1.0000 0.47340  0.09240  0.96080  Biso   1.000  C
  C15      1.0000 0.96080  0.47340  0.47340  Biso   1.000  C
  C16      1.0000 0.09240  0.47340  0.47340  Biso   1.000  C
  C17      1.0000 0.47340  0.09240  0.47340  Biso   1.000  C
  C18      1.0000 0.47340  0.96080  0.47340  Biso   1.000  C
  C19      1.0000 0.96080  0.47340  0.09240  Biso   1.000  C
  C20      1.0000 0.09240  0.47340  0.96080  Biso   1.000  C
  C21      1.0000 0.52660  0.52660  0.03920  Biso   1.000  C
  C22      1.0000 0.52660  0.52660  0.90760  Biso   1.000  C
  C23      1.0000 0.90760  0.03920  0.52660  Biso   1.000  C
  C24      1.0000 0.03920  0.90760  0.52660  Biso   1.000  C
  C25      1.0000 0.03920  0.52660  0.90760  Biso   1.000  C
  C26      1.0000 0.90760  0.52660  0.03920  Biso   1.000  C
  C27      1.0000 0.52660  0.03920  0.52660  Biso   1.000  C
  C28      1.0000 0.52660  0.90760  0.52660  Biso   1.000  C
  C29      1.0000 0.90760  0.52660  0.52660  Biso   1.000  C
  C30      1.0000 0.03920  0.52660  0.52660  Biso   1.000  C
  C31      1.0000 0.52660  0.03920  0.90760  Biso   1.000  C
  C32      1.0000 0.52660  0.90760  0.03920  Biso   1.000  C
  C33      1.0000 0.38820  0.38820  0.11180  Biso   1.000  C
  C34      1.0000 0.44590  0.44590  0.05410  Biso   1.000  C
  C35      1.0000 0.11180  0.11180  0.38820  Biso   1.000  C
  C36      1.0000 0.05410  0.05410  0.44590  Biso   1.000  C
  C37      1.0000 0.38820  0.11180  0.11180  Biso   1.000  C
  C38      1.0000 0.44590  0.05410  0.05410  Biso   1.000  C
  C39      1.0000 0.11180  0.38820  0.38820  Biso   1.000  C
  C40      1.0000 0.05410  0.44590  0.44590  Biso   1.000  C
  C41      1.0000 0.38820  0.11180  0.38820  Biso   1.000  C
  C42      1.0000 0.44590  0.05410  0.44590  Biso   1.000  C
  C43      1.0000 0.11180  0.38820  0.11180  Biso   1.000  C
  C44      1.0000 0.05410  0.44590  0.05410  Biso   1.000  C
  C45      1.0000 0.61180  0.61180  0.88820  Biso   1.000  C
  C46      1.0000 0.55410  0.55410  0.94590  Biso   1.000  C
  C47      1.0000 0.88820  0.88820  0.61180  Biso   1.000  C
  C48      1.0000 0.94590  0.94590  0.55410  Biso   1.000  C
  C49      1.0000 0.88820  0.61180  0.88820  Biso   1.000  C
  C50      1.0000 0.94590  0.55410  0.94590  Biso   1.000  C
  C51      1.0000 0.61180  0.88820  0.61180  Biso   1.000  C
  C52      1.0000 0.55410  0.94590  0.55410  Biso   1.000  C
  C53      1.0000 0.88820  0.61180  0.61180  Biso   1.000  C
  C54      1.0000 0.94590  0.55410  0.55410  Biso   1.000  C
  C55      1.0000 0.61180  0.88820  0.88820  Biso   1.000  C
  C56      1.0000 0.55410  0.94590  0.94590  Biso   1.000  C
  C57      1.0000 0.25000  0.25000  0.25000  Biso   1.000  C
  C58      1.0000 0.75000  0.75000  0.75000  Biso   1.000  C
  C59      1.0000 0.36569  0.36569  0.19789  Biso   1.000  C
  C60      1.0000 0.36569  0.36569  0.07073  Biso   1.000  C
  C61      1.0000 0.19789  0.07073  0.36569  Biso   1.000  C
  C62      1.0000 0.07073  0.19789  0.36569  Biso   1.000  C
  C63      1.0000 0.36569  0.19789  0.07073  Biso   1.000  C
  C64      1.0000 0.36569  0.07073  0.19789  Biso   1.000  C
  C65      1.0000 0.19789  0.36569  0.36569  Biso   1.000  C
  C66      1.0000 0.07073  0.36569  0.36569  Biso   1.000  C
  C67      1.0000 0.36569  0.07073  0.36569  Biso   1.000  C
  C68      1.0000 0.36569  0.19789  0.36569  Biso   1.000  C
  C69      1.0000 0.19789  0.36569  0.07073  Biso   1.000  C
  C70      1.0000 0.07073  0.36569  0.19789  Biso   1.000  C
  C71      1.0000 0.63431  0.63431  0.80211  Biso   1.000  C
  C72      1.0000 0.63431  0.63431  0.92927  Biso   1.000  C
  C73      1.0000 0.92927  0.80211  0.63431  Biso   1.000  C
  C74      1.0000 0.80211  0.92927  0.63431  Biso   1.000  C
  C75      1.0000 0.80211  0.63431  0.92927  Biso   1.000  C
  C76      1.0000 0.92927  0.63431  0.80211  Biso   1.000  C
  C77      1.0000 0.63431  0.80211  0.63431  Biso   1.000  C
  C78      1.0000 0.63431  0.92927  0.63431  Biso   1.000  C
  C79      1.0000 0.92927  0.63431  0.63431  Biso   1.000  C
  C80      1.0000 0.80211  0.63431  0.63431  Biso   1.000  C
  C81      1.0000 0.63431  0.80211  0.92927  Biso   1.000  C
  C82      1.0000 0.63431  0.92927  0.80211  Biso   1.000  C
  C83      1.0000 0.45110  0.45110  0.92847  Biso   1.000  C
  C84      1.0000 0.45110  0.45110  0.16934  Biso   1.000  C
  C85      1.0000 0.92847  0.16934  0.45110  Biso   1.000  C
  C86      1.0000 0.16934  0.92847  0.45110  Biso   1.000  C
  C87      1.0000 0.45110  0.92847  0.16934  Biso   1.000  C
  C88      1.0000 0.45110  0.16934  0.92847  Biso   1.000  C
  C89      1.0000 0.92847  0.45110  0.45110  Biso   1.000  C
  C90      1.0000 0.16934  0.45110  0.45110  Biso   1.000  C
  C91      1.0000 0.45110  0.16934  0.45110  Biso   1.000  C
  C92      1.0000 0.45110  0.92847  0.45110  Biso   1.000  C
  C93      1.0000 0.92847  0.45110  0.16934  Biso   1.000  C
  C94      1.0000 0.16934  0.45110  0.92847  Biso   1.000  C
  C95      1.0000 0.54890  0.54890  0.07153  Biso   1.000  C
  C96      1.0000 0.54890  0.54890  0.83066  Biso   1.000  C
  C97      1.0000 0.83066  0.07153  0.54890  Biso   1.000  C
  C98      1.0000 0.07153  0.83066  0.54890  Biso   1.000  C
  C99      1.0000 0.07153  0.54890  0.83066  Biso   1.000  C
  C100     1.0000 0.83066  0.54890  0.07153  Biso   1.000  C
  C101     1.0000 0.54890  0.07153  0.54890  Biso   1.000  C
  C102     1.0000 0.54890  0.83066  0.54890  Biso   1.000  C
  C103     1.0000 0.83066  0.54890  0.54890  Biso   1.000  C
  C104     1.0000 0.07153  0.54890  0.54890  Biso   1.000  C
  C105     1.0000 0.54890  0.07153  0.83066  Biso   1.000  C
  C106     1.0000 0.54890  0.83066  0.07153  Biso   1.000  C
  O1       1.0000 0.56063  0.95818  0.69925  Biso   1.000  O
  O2       1.0000 0.56058  0.95822  0.87407  Biso   1.000  O
  O3       1.0000 0.56063  0.13304  0.69925  Biso   1.000  O
  O4       1.0000 0.73545  0.95823  0.69920  Biso   1.000  O
  O5       1.0000 0.14360  0.54124  0.29106  Biso   1.000  O
  O6       1.0000 0.14365  0.54120  0.11624  Biso   1.000  O
  O7       1.0000 0.14360  0.36638  0.29106  Biso   1.000  O
  O8       1.0000 0.96878  0.54119  0.29111  Biso   1.000  O
  O9       1.0000 0.37956  0.77615  0.90193  Biso   1.000  O
  O10      1.0000 0.36870  0.16109  0.52681  Biso   1.000  O
  O11      1.0000 0.75448  0.77552  0.52782  Biso   1.000  O
  O12      1.0000 0.37855  0.77716  0.03449  Biso   1.000  O
  O13      1.0000 0.75468  0.77513  0.03551  Biso   1.000  O
  O14      1.0000 0.36910  0.16090  0.03430  Biso   1.000  O
  O15      1.0000 0.75447  0.28463  0.52703  Biso   1.000  O
  O16      1.0000 0.37935  0.28565  0.52500  Biso   1.000  O
  O17      1.0000 0.38036  0.28445  0.90194  Biso   1.000  O
  O18      1.0000 0.87819  0.16088  0.52602  Biso   1.000  O
  O19      1.0000 0.88805  0.77695  0.90214  Biso   1.000  O
  O20      1.0000 0.88684  0.77794  0.52540  Biso   1.000  O
  O21      1.0000 0.32466  0.72327  0.08838  Biso   1.000  O
  O22      1.0000 0.32669  0.33831  0.47234  Biso   1.000  O
  O23      1.0000 0.94091  0.72387  0.47133  Biso   1.000  O
  O24      1.0000 0.32567  0.72226  0.95582  Biso   1.000  O
  O25      1.0000 0.94071  0.72429  0.95480  Biso   1.000  O
  O26      1.0000 0.32628  0.33852  0.95601  Biso   1.000  O
  O27      1.0000 0.94092  0.20596  0.47213  Biso   1.000  O
  O28      1.0000 0.32488  0.20494  0.47415  Biso   1.000  O
  O29      1.0000 0.32386  0.20616  0.08837  Biso   1.000  O
  O30      1.0000 0.80836  0.33852  0.47313  Biso   1.000  O
  O31      1.0000 0.80734  0.72247  0.08817  Biso   1.000  O
  O32      1.0000 0.80855  0.72145  0.47375  Biso   1.000  O
  O33      1.0000 0.40639  0.80398  0.94088  Biso   1.000  O
  O34      1.0000 0.46558  0.86318  0.88168  Biso   1.000  O
  O35      1.0000 0.78458  0.19983  0.55385  Biso   1.000  O
  O36      1.0000 0.74305  0.14065  0.60421  Biso   1.000  O
  O37      1.0000 0.29784  0.69543  0.04943  Biso   1.000  O
  O38      1.0000 0.23864  0.63624  0.10863  Biso   1.000  O
  O39      1.0000 0.90197  0.29957  0.44530  Biso   1.000  O
  O40      1.0000 0.96117  0.35877  0.38610  Biso   1.000  O
  O41      1.0000 0.79362  0.80377  0.55365  Biso   1.000  O
  O42      1.0000 0.74354  0.86271  0.60372  Biso   1.000  O
  O43      1.0000 0.40618  0.19124  0.94108  Biso   1.000  O
  O44      1.0000 0.46510  0.14113  0.88216  Biso   1.000  O
  O45      1.0000 0.90177  0.69563  0.44550  Biso   1.000  O
  O46      1.0000 0.96069  0.63671  0.38659  Biso   1.000  O
  O47      1.0000 0.29804  0.29938  0.04923  Biso   1.000  O
  O48      1.0000 0.23912  0.35829  0.10814  Biso   1.000  O
  O49      1.0000 0.40599  0.19142  0.55345  Biso   1.000  O
  O50      1.0000 0.46490  0.14134  0.60352  Biso   1.000  O
  O51      1.0000 0.79382  0.80358  0.94128  Biso   1.000  O
  O52      1.0000 0.74374  0.86250  0.88236  Biso   1.000  O
  O53      1.0000 0.29824  0.29917  0.44570  Biso   1.000  O
  O54      1.0000 0.23933  0.35808  0.38679  Biso   1.000  O
  O55      1.0000 0.90157  0.69584  0.04903  Biso   1.000  O
  O56      1.0000 0.96048  0.63692  0.10794  Biso   1.000  O
  O57      1.0000 0.48677  0.88598  0.79669  Biso   1.000  O
  O58      1.0000 0.65892  0.88403  0.62701  Biso   1.000  O
  O59      1.0000 0.48719  0.05525  0.62664  Biso   1.000  O
  O60      1.0000 0.48838  0.88437  0.92268  Biso   1.000  O
  O61      1.0000 0.48643  0.05651  0.92217  Biso   1.000  O
  O62      1.0000 0.65765  0.88479  0.92304  Biso   1.000  O
  O63      1.0000 0.65807  0.18165  0.62539  Biso   1.000  O
  O64      1.0000 0.48838  0.18114  0.79754  Biso   1.000  O
  O65      1.0000 0.48802  0.18201  0.62582  Biso   1.000  O
  O66      1.0000 0.78405  0.05567  0.62701  Biso   1.000  O
  O67      1.0000 0.78355  0.88599  0.62505  Biso   1.000  O
  O68      1.0000 0.78442  0.88562  0.79627  Biso   1.000  O
  O69      1.0000 0.21745  0.61344  0.19361  Biso   1.000  O
  O70      1.0000 0.04531  0.61539  0.36330  Biso   1.000  O
  O71      1.0000 0.21703  0.44417  0.36366  Biso   1.000  O
  O72      1.0000 0.21584  0.61505  0.06763  Biso   1.000  O
  O73      1.0000 0.21780  0.44291  0.06813  Biso   1.000  O
  O74      1.0000 0.04658  0.61463  0.06727  Biso   1.000  O
  O75      1.0000 0.04615  0.31777  0.36492  Biso   1.000  O
  O76      1.0000 0.21584  0.31828  0.19277  Biso   1.000  O
  O77      1.0000 0.21620  0.31741  0.36449  Biso   1.000  O
  O78      1.0000 0.92017  0.44375  0.36330  Biso   1.000  O
  O79      1.0000 0.92067  0.61343  0.36526  Biso   1.000  O
  O80      1.0000 0.91981  0.61380  0.19404  Biso   1.000  O
  O81      1.0000 0.60432  0.00192  0.74294  Biso   1.000  O
  O82      1.0000 0.09990  0.49750  0.24736  Biso   1.000  O
  O83      1.0000 0.39036  0.08381  0.54997  Biso   1.000  O
  O84      1.0000 0.40251  0.31811  0.54666  Biso   1.000  O
  O85      1.0000 0.30503  0.41558  0.44918  Biso   1.000  O
  O86      1.0000 0.29289  0.18129  0.45249  Biso   1.000  O
  O87      1.0000 0.40376  0.31692  0.82467  Biso   1.000  O
  O88      1.0000 0.30489  0.41579  0.92355  Biso   1.000  O
  O89      1.0000 0.67721  0.79692  0.55123  Biso   1.000  O
  O90      1.0000 0.77609  0.69805  0.45235  Biso   1.000  O
  O91      1.0000 0.40054  0.79998  0.06696  Biso   1.000  O
  O92      1.0000 0.67740  0.79679  0.06797  Biso   1.000  O
  O93      1.0000 0.77589  0.41579  0.45115  Biso   1.000  O
  O94      1.0000 0.77488  0.69932  0.16545  Biso   1.000  O
  O95      1.0000 0.39050  0.08363  0.06676  Biso   1.000  O
  O96      1.0000 0.29162  0.18250  0.16564  Biso   1.000  O
  O97      1.0000 0.91930  0.80135  0.54680  Biso   1.000  O
  O98      1.0000 0.01818  0.70248  0.44792  Biso   1.000  O
  O99      1.0000 0.00936  0.18230  0.44931  Biso   1.000  O
  O100     1.0000 0.92051  0.80010  0.82486  Biso   1.000  O
  O101     1.0000 0.01798  0.70263  0.92234  Biso   1.000  O
  O102     1.0000 0.91067  0.08360  0.54800  Biso   1.000  O
  O103     1.0000 0.30369  0.69944  0.92334  Biso   1.000  O
  O104     1.0000 0.40238  0.79814  0.82465  Biso   1.000  O
  O105     1.0000 0.30184  0.70128  0.16566  Biso   1.000  O
  O106     1.0000 0.67719  0.31710  0.54985  Biso   1.000  O
