data_image0
_cell_length_a       18.0703
_cell_length_b       18.0703
_cell_length_c       18.0703
_cell_angle_alpha    60
_cell_angle_beta     60
_cell_angle_gamma    60

_symmetry_space_group_name_H-M    "P 1"
_symmetry_int_tables_number       1

loop_
  _symmetry_equiv_pos_as_xyz
  'x, y, z'

loop_
  _atom_site_label
  _atom_site_occupancy
  _atom_site_fract_x
  _atom_site_fract_y
  _atom_site_fract_z
  _atom_site_thermal_displace_type
  _atom_site_B_iso_or_equiv
  _atom_site_type_symbol
  C1       1.0000 0.29350  0.29350  0.29350  Biso   1.000  C
  C2       1.0000 0.29350  0.29350  0.11950  Biso   1.000  C
  C3       1.0000 0.29350  0.11950  0.29350  Biso   1.000  C
  C4       1.0000 0.11950  0.29350  0.29350  Biso   1.000  C
  C5       1.0000 0.70650  0.70650  0.70650  Biso   1.000  C
  C6       1.0000 0.70650  0.70650  0.88050  Biso   1.000  C
  C7       1.0000 0.88050  0.70650  0.70650  Biso   1.000  C
  C8       1.0000 0.70650  0.88050  0.70650  Biso   1.000  C
  C9       1.0000 0.47340  0.47340  0.96080  Biso   1.000  C
  C10      1.0000 0.47340  0.47340  0.09240  Biso   1.000  C
  C11      1.0000 0.96080  0.09240  0.47340  Biso   1.000  C
  C12      1.0000 0.09240  0.96080  0.47340  Biso   1.000  C
  C13      1.0000 0.47340  0.96080  0.09240  Biso   1.000  C
  C14      1.0000 0.47340  0.09240  0.96080  Biso   1.000  C
  C15      1.0000 0.96080  0.47340  0.47340  Biso   1.000  C
  C16      1.0000 0.09240  0.47340  0.47340  Biso   1.000  C
  C17      1.0000 0.47340  0.09240  0.47340  Biso   1.000  C
  C18      1.0000 0.47340  0.96080  0.47340  Biso   1.000  C
  C19      1.0000 0.96080  0.47340  0.09240  Biso   1.000  C
  C20      1.0000 0.09240  0.47340  0.96080  Biso   1.000  C
  C21      1.0000 0.52660  0.52660  0.03920  Biso   1.000  C
  C22      1.0000 0.52660  0.52660  0.90760  Biso   1.000  C
  C23      1.0000 0.90760  0.03920  0.52660  Biso   1.000  C
  C24      1.0000 0.03920  0.90760  0.52660  Biso   1.000  C
  C25      1.0000 0.03920  0.52660  0.90760  Biso   1.000  C
  C26      1.0000 0.90760  0.52660  0.03920  Biso   1.000  C
  C27      1.0000 0.52660  0.03920  0.52660  Biso   1.000  C
  C28      1.0000 0.52660  0.90760  0.52660  Biso   1.000  C
  C29      1.0000 0.90760  0.52660  0.52660  Biso   1.000  C
  C30      1.0000 0.03920  0.52660  0.52660  Biso   1.000  C
  C31      1.0000 0.52660  0.03920  0.90760  Biso   1.000  C
  C32      1.0000 0.52660  0.90760  0.03920  Biso   1.000  C
  C33      1.0000 0.38820  0.38820  0.11180  Biso   1.000  C
  C34      1.0000 0.44590  0.44590  0.05410  Biso   1.000  C
  C35      1.0000 0.11180  0.11180  0.38820  Biso   1.000  C
  C36      1.0000 0.05410  0.05410  0.44590  Biso   1.000  C
  C37      1.0000 0.38820  0.11180  0.11180  Biso   1.000  C
  C38      1.0000 0.44590  0.05410  0.05410  Biso   1.000  C
  C39      1.0000 0.11180  0.38820  0.38820  Biso   1.000  C
  C40      1.0000 0.05410  0.44590  0.44590  Biso   1.000  C
  C41      1.0000 0.38820  0.11180  0.38820  Biso   1.000  C
  C42      1.0000 0.44590  0.05410  0.44590  Biso   1.000  C
  C43      1.0000 0.11180  0.38820  0.11180  Biso   1.000  C
  C44      1.0000 0.05410  0.44590  0.05410  Biso   1.000  C
  C45      1.0000 0.61180  0.61180  0.88820  Biso   1.000  C
  C46      1.0000 0.55410  0.55410  0.94590  Biso   1.000  C
  C47      1.0000 0.88820  0.88820  0.61180  Biso   1.000  C
  C48      1.0000 0.94590  0.94590  0.55410  Biso   1.000  C
  C49      1.0000 0.88820  0.61180  0.88820  Biso   1.000  C
  C50      1.0000 0.94590  0.55410  0.94590  Biso   1.000  C
  C51      1.0000 0.61180  0.88820  0.61180  Biso   1.000  C
  C52      1.0000 0.55410  0.94590  0.55410  Biso   1.000  C
  C53      1.0000 0.88820  0.61180  0.61180  Biso   1.000  C
  C54      1.0000 0.94590  0.55410  0.55410  Biso   1.000  C
  C55      1.0000 0.61180  0.88820  0.88820  Biso   1.000  C
  C56      1.0000 0.55410  0.94590  0.94590  Biso   1.000  C
  C57      1.0000 0.25000  0.25000  0.25000  Biso   1.000  C
  C58      1.0000 0.75000  0.75000  0.75000  Biso   1.000  C
  C59      1.0000 0.36569  0.36569  0.19789  Biso   1.000  C
  C60      1.0000 0.36569  0.36569  0.07073  Biso   1.000  C
  C61      1.0000 0.19789  0.07073  0.36569  Biso   1.000  C
  C62      1.0000 0.07073  0.19789  0.36569  Biso   1.000  C
  C63      1.0000 0.36569  0.19789  0.07073  Biso   1.000  C
  C64      1.0000 0.36569  0.07073  0.19789  Biso   1.000  C
  C65      1.0000 0.19789  0.36569  0.36569  Biso   1.000  C
  C66      1.0000 0.07073  0.36569  0.36569  Biso   1.000  C
  C67      1.0000 0.36569  0.07073  0.36569  Biso   1.000  C
  C68      1.0000 0.36569  0.19789  0.36569  Biso   1.000  C
  C69      1.0000 0.19789  0.36569  0.07073  Biso   1.000  C
  C70      1.0000 0.07073  0.36569  0.19789  Biso   1.000  C
  C71      1.0000 0.63431  0.63431  0.80211  Biso   1.000  C
  C72      1.0000 0.63431  0.63431  0.92927  Biso   1.000  C
  C73      1.0000 0.92927  0.80211  0.63431  Biso   1.000  C
  C74      1.0000 0.80211  0.92927  0.63431  Biso   1.000  C
  C75      1.0000 0.80211  0.63431  0.92927  Biso   1.000  C
  C76      1.0000 0.92927  0.63431  0.80211  Biso   1.000  C
  C77      1.0000 0.63431  0.80211  0.63431  Biso   1.000  C
  C78      1.0000 0.63431  0.92927  0.63431  Biso   1.000  C
  C79      1.0000 0.92927  0.63431  0.63431  Biso   1.000  C
  C80      1.0000 0.80211  0.63431  0.63431  Biso   1.000  C
  C81      1.0000 0.63431  0.80211  0.92927  Biso   1.000  C
  C82      1.0000 0.63431  0.92927  0.80211  Biso   1.000  C
  C83      1.0000 0.45110  0.45110  0.92847  Biso   1.000  C
  C84      1.0000 0.45110  0.45110  0.16934  Biso   1.000  C
  C85      1.0000 0.92847  0.16934  0.45110  Biso   1.000  C
  C86      1.0000 0.16934  0.92847  0.45110  Biso   1.000  C
  C87      1.0000 0.45110  0.92847  0.16934  Biso   1.000  C
  C88      1.0000 0.45110  0.16934  0.92847  Biso   1.000  C
  C89      1.0000 0.92847  0.45110  0.45110  Biso   1.000  C
  C90      1.0000 0.16934  0.45110  0.45110  Biso   1.000  C
  C91      1.0000 0.45110  0.16934  0.45110  Biso   1.000  C
  C92      1.0000 0.45110  0.92847  0.45110  Biso   1.000  C
  C93      1.0000 0.92847  0.45110  0.16934  Biso   1.000  C
  C94      1.0000 0.16934  0.45110  0.92847  Biso   1.000  C
  C95      1.0000 0.54890  0.54890  0.07153  Biso   1.000  C
  C96      1.0000 0.54890  0.54890  0.83066  Biso   1.000  C
  C97      1.0000 0.83066  0.07153  0.54890  Biso   1.000  C
  C98      1.0000 0.07153  0.83066  0.54890  Biso   1.000  C
  C99      1.0000 0.07153  0.54890  0.83066  Biso   1.000  C
  C100     1.0000 0.83066  0.54890  0.07153  Biso   1.000  C
  C101     1.0000 0.54890  0.07153  0.54890  Biso   1.000  C
  C102     1.0000 0.54890  0.83066  0.54890  Biso   1.000  C
  C103     1.0000 0.83066  0.54890  0.54890  Biso   1.000  C
  C104     1.0000 0.07153  0.54890  0.54890  Biso   1.000  C
  C105     1.0000 0.54890  0.07153  0.83066  Biso   1.000  C
  C106     1.0000 0.54890  0.83066  0.07153  Biso   1.000  C
  O1       1.0000 0.41661  0.79821  0.37527  Biso   1.000  O
  O2       1.0000 0.41661  0.62216  0.37527  Biso   1.000  O
  O3       1.0000 0.59266  0.62216  0.37527  Biso   1.000  O
  O4       1.0000 0.41661  0.62216  0.55132  Biso   1.000  O
  O5       1.0000 0.01197  0.20294  0.95606  Biso   1.000  O
  O6       1.0000 0.01197  0.04127  0.95606  Biso   1.000  O
  O7       1.0000 0.01197  0.20294  0.79439  Biso   1.000  O
  O8       1.0000 0.85031  0.20294  0.95606  Biso   1.000  O
  O9       1.0000 0.16213  0.07525  0.12080  Biso   1.000  O
  O10      1.0000 0.16213  0.85407  0.12080  Biso   1.000  O
  O11      1.0000 0.86970  0.36768  0.60719  Biso   1.000  O
  O12      1.0000 0.64852  0.36768  0.82837  Biso   1.000  O
  O13      1.0000 0.86970  0.36768  0.12080  Biso   1.000  O
  O14      1.0000 0.64852  0.36768  0.12080  Biso   1.000  O
  O15      1.0000 0.16213  0.85407  0.82837  Biso   1.000  O
  O16      1.0000 0.16213  0.07525  0.60719  Biso   1.000  O
  O17      1.0000 0.16213  0.36768  0.82837  Biso   1.000  O
  O18      1.0000 0.16213  0.36768  0.60719  Biso   1.000  O
  O19      1.0000 0.64852  0.07525  0.12080  Biso   1.000  O
  O20      1.0000 0.86970  0.85407  0.12080  Biso   1.000  O
  O21      1.0000 0.22879  0.95786  0.18745  Biso   1.000  O
  O22      1.0000 0.18009  0.01225  0.13875  Biso   1.000  O
  O23      1.0000 0.22879  0.83814  0.18745  Biso   1.000  O
  O24      1.0000 0.18009  0.88116  0.13875  Biso   1.000  O
  O25      1.0000 0.75231  0.43434  0.59126  Biso   1.000  O
  O26      1.0000 0.80669  0.38564  0.63428  Biso   1.000  O
  O27      1.0000 0.63259  0.43434  0.71098  Biso   1.000  O
  O28      1.0000 0.67561  0.38564  0.76536  Biso   1.000  O
  O29      1.0000 0.75231  0.43434  0.18745  Biso   1.000  O
  O30      1.0000 0.80669  0.38564  0.13875  Biso   1.000  O
  O31      1.0000 0.63259  0.43434  0.18745  Biso   1.000  O
  O32      1.0000 0.67561  0.38564  0.13875  Biso   1.000  O
  O33      1.0000 0.22879  0.83814  0.71098  Biso   1.000  O
  O34      1.0000 0.18009  0.88116  0.76536  Biso   1.000  O
  O35      1.0000 0.22879  0.95786  0.59126  Biso   1.000  O
  O36      1.0000 0.18009  0.01225  0.63428  Biso   1.000  O
  O37      1.0000 0.22879  0.43434  0.71098  Biso   1.000  O
  O38      1.0000 0.18009  0.38564  0.76536  Biso   1.000  O
  O39      1.0000 0.22879  0.43434  0.59126  Biso   1.000  O
  O40      1.0000 0.18009  0.38564  0.63428  Biso   1.000  O
  O41      1.0000 0.63259  0.95786  0.18745  Biso   1.000  O
  O42      1.0000 0.67561  0.01225  0.13875  Biso   1.000  O
  O43      1.0000 0.75231  0.83814  0.18745  Biso   1.000  O
  O44      1.0000 0.80669  0.88116  0.13875  Biso   1.000  O
  O45      1.0000 0.26267  0.86412  0.22134  Biso   1.000  O
  O46      1.0000 0.15695  0.96984  0.11562  Biso   1.000  O
  O47      1.0000 0.09466  0.03213  0.05333  Biso   1.000  O
  O48      1.0000 0.32030  0.80649  0.27897  Biso   1.000  O
  O49      1.0000 0.65856  0.46823  0.61723  Biso   1.000  O
  O50      1.0000 0.76428  0.36251  0.72295  Biso   1.000  O
  O51      1.0000 0.82658  0.30021  0.78525  Biso   1.000  O
  O52      1.0000 0.60094  0.52585  0.55960  Biso   1.000  O
  O53      1.0000 0.65856  0.46823  0.22134  Biso   1.000  O
  O54      1.0000 0.76428  0.36251  0.11562  Biso   1.000  O
  O55      1.0000 0.82658  0.30021  0.05333  Biso   1.000  O
  O56      1.0000 0.60094  0.52585  0.27897  Biso   1.000  O
  O57      1.0000 0.26267  0.86412  0.61723  Biso   1.000  O
  O58      1.0000 0.15695  0.96984  0.72295  Biso   1.000  O
  O59      1.0000 0.09466  0.03213  0.78525  Biso   1.000  O
  O60      1.0000 0.32030  0.80649  0.55960  Biso   1.000  O
  O61      1.0000 0.26267  0.46823  0.61723  Biso   1.000  O
  O62      1.0000 0.15695  0.36251  0.72295  Biso   1.000  O
  O63      1.0000 0.09466  0.30021  0.78525  Biso   1.000  O
  O64      1.0000 0.32030  0.52585  0.55960  Biso   1.000  O
  O65      1.0000 0.65856  0.86412  0.22134  Biso   1.000  O
  O66      1.0000 0.76428  0.96984  0.11562  Biso   1.000  O
  O67      1.0000 0.82658  0.03213  0.05333  Biso   1.000  O
  O68      1.0000 0.60094  0.80649  0.27897  Biso   1.000  O
  O69      1.0000 0.07010  0.12101  0.02877  Biso   1.000  O
  O70      1.0000 0.34201  0.84403  0.30068  Biso   1.000  O
  O71      1.0000 0.07010  0.99236  0.02877  Biso   1.000  O
  O72      1.0000 0.34201  0.72552  0.30068  Biso   1.000  O
  O73      1.0000 0.91546  0.27566  0.74548  Biso   1.000  O
  O74      1.0000 0.63848  0.54757  0.47864  Biso   1.000  O
  O75      1.0000 0.78681  0.27566  0.87412  Biso   1.000  O
  O76      1.0000 0.51997  0.54757  0.59714  Biso   1.000  O
  O77      1.0000 0.91546  0.27566  0.02877  Biso   1.000  O
  O78      1.0000 0.63848  0.54757  0.30068  Biso   1.000  O
  O79      1.0000 0.78681  0.27566  0.02877  Biso   1.000  O
  O80      1.0000 0.51997  0.54757  0.30068  Biso   1.000  O
  O81      1.0000 0.07011  0.99236  0.87412  Biso   1.000  O
  O82      1.0000 0.34201  0.72552  0.59714  Biso   1.000  O
  O83      1.0000 0.07011  0.12101  0.74548  Biso   1.000  O
  O84      1.0000 0.34201  0.84403  0.47864  Biso   1.000  O
  O85      1.0000 0.07011  0.27566  0.87412  Biso   1.000  O
  O86      1.0000 0.34201  0.54757  0.59714  Biso   1.000  O
  O87      1.0000 0.07010  0.27566  0.74548  Biso   1.000  O
  O88      1.0000 0.34201  0.54757  0.47864  Biso   1.000  O
  O89      1.0000 0.78681  0.12101  0.02877  Biso   1.000  O
  O90      1.0000 0.51997  0.84403  0.30068  Biso   1.000  O
  O91      1.0000 0.91546  0.99236  0.02877  Biso   1.000  O
  O92      1.0000 0.63848  0.72552  0.30068  Biso   1.000  O
  O93      1.0000 0.93874  0.17346  0.92658  Biso   1.000  O
  O94      1.0000 0.46062  0.66617  0.41929  Biso   1.000  O
