data_image0
_cell_length_a       18.0449
_cell_length_b       18.0449
_cell_length_c       18.0449
_cell_angle_alpha    60
_cell_angle_beta     60
_cell_angle_gamma    60

loop_
  _atom_site_label
  _atom_site_occupancy
  _atom_site_fract_x
  _atom_site_fract_y
  _atom_site_fract_z
  _atom_site_thermal_displace_type
  _atom_site_B_iso_or_equiv
  _atom_site_type_symbol
  C1       1.0000 0.38137  0.20621  0.20621  Biso   1.000  C
  C2       1.0000 0.20621  0.38137  0.20621  Biso   1.000  C
  C3       1.0000 0.20621  0.20621  0.38137  Biso   1.000  C
  C4       1.0000 0.20621  0.20621  0.20621  Biso   1.000  C
  C5       1.0000 0.79379  0.61863  0.79379  Biso   1.000  C
  C6       1.0000 0.61863  0.79379  0.79379  Biso   1.000  C
  C7       1.0000 0.79379  0.79379  0.61863  Biso   1.000  C
  C8       1.0000 0.79379  0.79379  0.79379  Biso   1.000  C
  C9       1.0000 0.53160  0.41760  0.02540  Biso   1.000  C
  C10      1.0000 0.41760  0.53160  0.02540  Biso   1.000  C
  C11      1.0000 0.02540  0.02540  0.53160  Biso   1.000  C
  C12      1.0000 0.02540  0.02540  0.41760  Biso   1.000  C
  C13      1.0000 0.53160  0.02540  0.02540  Biso   1.000  C
  C14      1.0000 0.41760  0.02540  0.02540  Biso   1.000  C
  C15      1.0000 0.02540  0.53160  0.41760  Biso   1.000  C
  C16      1.0000 0.02540  0.41760  0.53160  Biso   1.000  C
  C17      1.0000 0.53160  0.02540  0.41760  Biso   1.000  C
  C18      1.0000 0.41760  0.02540  0.53160  Biso   1.000  C
  C19      1.0000 0.02540  0.41760  0.02540  Biso   1.000  C
  C20      1.0000 0.02540  0.53160  0.02540  Biso   1.000  C
  C21      1.0000 0.58240  0.46840  0.97460  Biso   1.000  C
  C22      1.0000 0.46840  0.58240  0.97460  Biso   1.000  C
  C23      1.0000 0.97460  0.97460  0.46840  Biso   1.000  C
  C24      1.0000 0.97460  0.97460  0.58240  Biso   1.000  C
  C25      1.0000 0.97460  0.46840  0.97460  Biso   1.000  C
  C26      1.0000 0.97460  0.58240  0.97460  Biso   1.000  C
  C27      1.0000 0.46840  0.97460  0.58240  Biso   1.000  C
  C28      1.0000 0.58240  0.97460  0.46840  Biso   1.000  C
  C29      1.0000 0.97460  0.46840  0.58240  Biso   1.000  C
  C30      1.0000 0.97460  0.58240  0.46840  Biso   1.000  C
  C31      1.0000 0.58240  0.97460  0.97460  Biso   1.000  C
  C32      1.0000 0.46840  0.97460  0.97460  Biso   1.000  C
  C33      1.0000 0.44560  0.44560  0.05440  Biso   1.000  C
  C34      1.0000 0.38970  0.38970  0.11030  Biso   1.000  C
  C35      1.0000 0.05440  0.05440  0.44560  Biso   1.000  C
  C36      1.0000 0.11030  0.11030  0.38970  Biso   1.000  C
  C37      1.0000 0.44560  0.05440  0.05440  Biso   1.000  C
  C38      1.0000 0.38970  0.11030  0.11030  Biso   1.000  C
  C39      1.0000 0.05440  0.44560  0.44560  Biso   1.000  C
  C40      1.0000 0.11030  0.38970  0.38970  Biso   1.000  C
  C41      1.0000 0.44560  0.05440  0.44560  Biso   1.000  C
  C42      1.0000 0.38970  0.11030  0.38970  Biso   1.000  C
  C43      1.0000 0.05440  0.44560  0.05440  Biso   1.000  C
  C44      1.0000 0.11030  0.38970  0.11030  Biso   1.000  C
  C45      1.0000 0.55440  0.55440  0.94560  Biso   1.000  C
  C46      1.0000 0.61030  0.61030  0.88970  Biso   1.000  C
  C47      1.0000 0.94560  0.94560  0.55440  Biso   1.000  C
  C48      1.0000 0.88970  0.88970  0.61030  Biso   1.000  C
  C49      1.0000 0.94560  0.55440  0.94560  Biso   1.000  C
  C50      1.0000 0.88970  0.61030  0.88970  Biso   1.000  C
  C51      1.0000 0.55440  0.94560  0.55440  Biso   1.000  C
  C52      1.0000 0.61030  0.88970  0.61030  Biso   1.000  C
  C53      1.0000 0.94560  0.55440  0.55440  Biso   1.000  C
  C54      1.0000 0.88970  0.61030  0.61030  Biso   1.000  C
  C55      1.0000 0.55440  0.94560  0.94560  Biso   1.000  C
  C56      1.0000 0.61030  0.88970  0.88970  Biso   1.000  C
  C57      1.0000 0.25000  0.25000  0.25000  Biso   1.000  C
  C58      1.0000 0.75000  0.75000  0.75000  Biso   1.000  C
  C59      1.0000 0.42550  0.30590  0.13430  Biso   1.000  C
  C60      1.0000 0.30590  0.42550  0.13430  Biso   1.000  C
  C61      1.0000 0.13430  0.13430  0.42550  Biso   1.000  C
  C62      1.0000 0.13430  0.13430  0.30590  Biso   1.000  C
  C63      1.0000 0.42550  0.13430  0.13430  Biso   1.000  C
  C64      1.0000 0.30590  0.13430  0.13430  Biso   1.000  C
  C65      1.0000 0.13430  0.42550  0.30590  Biso   1.000  C
  C66      1.0000 0.13430  0.30590  0.42550  Biso   1.000  C
  C67      1.0000 0.42550  0.13430  0.30590  Biso   1.000  C
  C68      1.0000 0.30590  0.13430  0.42550  Biso   1.000  C
  C69      1.0000 0.13430  0.30590  0.13430  Biso   1.000  C
  C70      1.0000 0.13430  0.42550  0.13430  Biso   1.000  C
  C71      1.0000 0.69410  0.57450  0.86570  Biso   1.000  C
  C72      1.0000 0.57450  0.69410  0.86570  Biso   1.000  C
  C73      1.0000 0.86570  0.86570  0.57450  Biso   1.000  C
  C74      1.0000 0.86570  0.86570  0.69410  Biso   1.000  C
  C75      1.0000 0.86570  0.57450  0.86570  Biso   1.000  C
  C76      1.0000 0.86570  0.69410  0.86570  Biso   1.000  C
  C77      1.0000 0.57450  0.86570  0.69410  Biso   1.000  C
  C78      1.0000 0.69410  0.86570  0.57450  Biso   1.000  C
  C79      1.0000 0.86570  0.57450  0.69410  Biso   1.000  C
  C80      1.0000 0.86570  0.69410  0.57450  Biso   1.000  C
  C81      1.0000 0.69410  0.86570  0.86570  Biso   1.000  C
  C82      1.0000 0.57450  0.86570  0.86570  Biso   1.000  C
  C83      1.0000 0.56398  0.34055  0.04774  Biso   1.000  C
  C84      1.0000 0.34055  0.56398  0.04774  Biso   1.000  C
  C85      1.0000 0.04774  0.04774  0.56398  Biso   1.000  C
  C86      1.0000 0.04774  0.04774  0.34055  Biso   1.000  C
  C87      1.0000 0.34055  0.04774  0.04774  Biso   1.000  C
  C88      1.0000 0.04774  0.56398  0.34055  Biso   1.000  C
  C89      1.0000 0.04774  0.34055  0.56398  Biso   1.000  C
  C90      1.0000 0.56398  0.04774  0.34055  Biso   1.000  C
  C91      1.0000 0.34055  0.04774  0.56398  Biso   1.000  C
  C92      1.0000 0.04774  0.34055  0.04774  Biso   1.000  C
  C93      1.0000 0.04774  0.56398  0.04774  Biso   1.000  C
  C94      1.0000 0.65945  0.43602  0.95226  Biso   1.000  C
  C95      1.0000 0.43602  0.65945  0.95226  Biso   1.000  C
  C96      1.0000 0.95226  0.95226  0.43602  Biso   1.000  C
  C97      1.0000 0.95226  0.95226  0.65945  Biso   1.000  C
  C98      1.0000 0.95226  0.43602  0.95226  Biso   1.000  C
  C99      1.0000 0.95226  0.65945  0.95226  Biso   1.000  C
  C100     1.0000 0.43602  0.95226  0.65945  Biso   1.000  C
  C101     1.0000 0.65945  0.95226  0.43602  Biso   1.000  C
  C102     1.0000 0.95226  0.65945  0.43602  Biso   1.000  C
  C103     1.0000 0.65945  0.95226  0.95226  Biso   1.000  C
  C104     1.0000 0.43602  0.95226  0.95226  Biso   1.000  C
  C105     1.0000 0.95226  0.43602  0.65945  Biso   1.000  C
  C106     1.0000 0.56398  0.04774  0.04774  Biso   1.000  C
  O1       1.0000 0.43429  0.54869  0.47787  Biso   1.000  O
  O2       1.0000 0.60961  0.54864  0.30256  Biso   1.000  O
  O3       1.0000 0.60966  0.37333  0.47787  Biso   1.000  O
  O4       1.0000 0.60961  0.54864  0.47792  Biso   1.000  O
  O5       1.0000 0.19145  0.96680  0.88440  Biso   1.000  O
  O6       1.0000 0.01613  0.96684  0.05971  Biso   1.000  O
  O7       1.0000 0.01608  0.14215  0.88440  Biso   1.000  O
  O8       1.0000 0.01613  0.96685  0.88435  Biso   1.000  O
  O9       1.0000 0.27343  0.73122  0.27462  Biso   1.000  O
  O10      1.0000 0.27240  0.34520  0.64798  Biso   1.000  O
  O11      1.0000 0.27361  0.73186  0.64696  Biso   1.000  O
  O12      1.0000 0.40636  0.73022  0.14169  Biso   1.000  O
  O13      1.0000 0.77972  0.73225  0.14067  Biso   1.000  O
  O14      1.0000 0.77870  0.34539  0.14188  Biso   1.000  O
  O15      1.0000 0.78051  0.22413  0.64776  Biso   1.000  O
  O16      1.0000 0.40614  0.22311  0.64980  Biso   1.000  O
  O17      1.0000 0.78113  0.22431  0.27461  Biso   1.000  O
  O18      1.0000 0.77950  0.34542  0.64878  Biso   1.000  O
  O19      1.0000 0.78154  0.73043  0.27441  Biso   1.000  O
  O20      1.0000 0.40635  0.72943  0.64939  Biso   1.000  O
  O21      1.0000 0.35232  0.78426  0.08764  Biso   1.000  O
  O22      1.0000 0.35333  0.17030  0.70261  Biso   1.000  O
  O23      1.0000 0.35212  0.78365  0.70362  Biso   1.000  O
  O24      1.0000 0.21938  0.78527  0.22058  Biso   1.000  O
  O25      1.0000 0.83435  0.78323  0.22160  Biso   1.000  O
  O26      1.0000 0.83536  0.17009  0.22039  Biso   1.000  O
  O27      1.0000 0.83354  0.30302  0.70282  Biso   1.000  O
  O28      1.0000 0.21959  0.30404  0.70079  Biso   1.000  O
  O29      1.0000 0.83293  0.30282  0.08766  Biso   1.000  O
  O30      1.0000 0.83456  0.17009  0.70181  Biso   1.000  O
  O31      1.0000 0.83252  0.78506  0.08786  Biso   1.000  O
  O32      1.0000 0.21939  0.78608  0.70119  Biso   1.000  O
  O33      1.0000 0.36730  0.70331  0.23556  Biso   1.000  O
  O34      1.0000 0.42667  0.64395  0.29493  Biso   1.000  O
  O35      1.0000 0.75260  0.30636  0.62086  Biso   1.000  O
  O36      1.0000 0.70492  0.36570  0.57318  Biso   1.000  O
  O37      1.0000 0.25844  0.81217  0.12671  Biso   1.000  O
  O38      1.0000 0.19908  0.87153  0.06734  Biso   1.000  O
  O39      1.0000 0.86146  0.20915  0.72972  Biso   1.000  O
  O40      1.0000 0.92082  0.14978  0.78909  Biso   1.000  O
  O41      1.0000 0.36709  0.70353  0.62107  Biso   1.000  O
  O42      1.0000 0.42618  0.64443  0.57367  Biso   1.000  O
  O43      1.0000 0.75281  0.31779  0.23536  Biso   1.000  O
  O44      1.0000 0.70540  0.36522  0.29444  Biso   1.000  O
  O45      1.0000 0.25864  0.81198  0.72952  Biso   1.000  O
  O46      1.0000 0.19956  0.87106  0.78860  Biso   1.000  O
  O47      1.0000 0.86126  0.20934  0.12691  Biso   1.000  O
  O48      1.0000 0.92034  0.15026  0.06783  Biso   1.000  O
  O49      1.0000 0.36689  0.31760  0.62127  Biso   1.000  O
  O50      1.0000 0.42598  0.36501  0.57387  Biso   1.000  O
  O51      1.0000 0.75301  0.70372  0.23516  Biso   1.000  O
  O52      1.0000 0.70561  0.64464  0.29424  Biso   1.000  O
  O53      1.0000 0.25884  0.20955  0.72932  Biso   1.000  O
  O54      1.0000 0.19976  0.15047  0.78840  Biso   1.000  O
  O55      1.0000 0.86105  0.81177  0.12711  Biso   1.000  O
  O56      1.0000 0.92014  0.87085  0.06803  Biso   1.000  O
  O57      1.0000 0.38555  0.62108  0.38015  Biso   1.000  O
  O58      1.0000 0.38606  0.62304  0.55032  Biso   1.000  O
  O59      1.0000 0.38519  0.45135  0.55068  Biso   1.000  O
  O60      1.0000 0.51189  0.62271  0.25381  Biso   1.000  O
  O61      1.0000 0.68205  0.45008  0.25432  Biso   1.000  O
  O62      1.0000 0.68242  0.62228  0.25345  Biso   1.000  O
  O63      1.0000 0.68206  0.32459  0.55194  Biso   1.000  O
  O64      1.0000 0.68402  0.32510  0.37930  Biso   1.000  O
  O65      1.0000 0.51232  0.32422  0.55151  Biso   1.000  O
  O66      1.0000 0.68367  0.45092  0.55032  Biso   1.000  O
  O67      1.0000 0.51104  0.62108  0.55228  Biso   1.000  O
  O68      1.0000 0.68325  0.62145  0.38058  Biso   1.000  O
  O69      1.0000 0.24019  0.89440  0.98212  Biso   1.000  O
  O70      1.0000 0.23968  0.89244  0.81195  Biso   1.000  O
  O71      1.0000 0.24055  0.06414  0.81159  Biso   1.000  O
  O72      1.0000 0.11385  0.89278  0.10846  Biso   1.000  O
  O73      1.0000 0.94369  0.06541  0.10795  Biso   1.000  O
  O74      1.0000 0.94332  0.89320  0.10882  Biso   1.000  O
  O75      1.0000 0.94369  0.19090  0.81033  Biso   1.000  O
  O76      1.0000 0.94172  0.19039  0.98297  Biso   1.000  O
  O77      1.0000 0.11343  0.19126  0.81076  Biso   1.000  O
  O78      1.0000 0.94207  0.06456  0.81195  Biso   1.000  O
  O79      1.0000 0.11470  0.89440  0.80999  Biso   1.000  O
  O80      1.0000 0.94249  0.89404  0.98169  Biso   1.000  O
  O81      1.0000 0.56579  0.50482  0.43406  Biso   1.000  O
  O82      1.0000 0.05995  0.01066  0.92821  Biso   1.000  O
  O83      1.0000 0.23984  0.42270  0.62476  Biso   1.000  O
  O84      1.0000 0.48364  0.19056  0.62808  Biso   1.000  O
  O85      1.0000 0.38589  0.09281  0.72583  Biso   1.000  O
  O86      1.0000 0.14210  0.32495  0.72251  Biso   1.000  O
  O87      1.0000 0.75968  0.19176  0.35210  Biso   1.000  O
  O88      1.0000 0.85883  0.09261  0.25294  Biso   1.000  O
  O89      1.0000 0.24106  0.71040  0.62349  Biso   1.000  O
  O90      1.0000 0.14190  0.80955  0.72265  Biso   1.000  O
  O91      1.0000 0.48385  0.70733  0.10912  Biso   1.000  O
  O92      1.0000 0.75650  0.71053  0.10811  Biso   1.000  O
  O93      1.0000 0.85744  0.09260  0.72385  Biso   1.000  O
  O94      1.0000 0.85424  0.80828  0.01036  Biso   1.000  O
  O95      1.0000 0.75523  0.42288  0.10933  Biso   1.000  O
  O96      1.0000 0.85439  0.32373  0.01017  Biso   1.000  O
  O97      1.0000 0.48383  0.70596  0.62793  Biso   1.000  O
  O98      1.0000 0.38468  0.80511  0.72709  Biso   1.000  O
  O99      1.0000 0.85559  0.32394  0.72570  Biso   1.000  O
  O100     1.0000 0.75982  0.70721  0.35191  Biso   1.000  O
  O101     1.0000 0.85757  0.80495  0.25416  Biso   1.000  O
  O102     1.0000 0.75662  0.42291  0.62673  Biso   1.000  O
  O103     1.0000 0.14189  0.80815  0.25315  Biso   1.000  O
  O104     1.0000 0.24086  0.70918  0.35212  Biso   1.000  O
  O105     1.0000 0.38488  0.80631  0.01015  Biso   1.000  O
  O106     1.0000 0.75847  0.19157  0.62488  Biso   1.000  O
