data_image0
_cell_length_a       18.2016
_cell_length_b       18.2016
_cell_length_c       18.2016
_cell_angle_alpha    60
_cell_angle_beta     60
_cell_angle_gamma    60

_symmetry_space_group_name_H-M    "P 1"
_symmetry_int_tables_number       1

loop_
  _symmetry_equiv_pos_as_xyz
  'x, y, z'

loop_
  _atom_site_label
  _atom_site_occupancy
  _atom_site_fract_x
  _atom_site_fract_y
  _atom_site_fract_z
  _atom_site_thermal_displace_type
  _atom_site_B_iso_or_equiv
  _atom_site_type_symbol
  Zn1      1.0000 0.54338  0.36986  0.54338  Biso   1.000  Zn
  Zn2      1.0000 0.36986  0.54338  0.54338  Biso   1.000  Zn
  Zn3      1.0000 0.54338  0.54338  0.54338  Biso   1.000  Zn
  Zn4      1.0000 0.54338  0.54338  0.36986  Biso   1.000  Zn
  Zn5      1.0000 0.13029  0.95657  0.95657  Biso   1.000  Zn
  Zn6      1.0000 0.95657  0.13029  0.95657  Biso   1.000  Zn
  Zn7      1.0000 0.95657  0.95657  0.13029  Biso   1.000  Zn
  Zn8      1.0000 0.95657  0.95657  0.95657  Biso   1.000  Zn
  H1       1.0000 0.31480  0.09680  0.79420  Biso   1.000  H
  H2       1.0000 0.09680  0.31480  0.79420  Biso   1.000  H
  H3       1.0000 0.79420  0.79420  0.31480  Biso   1.000  H
  H4       1.0000 0.79420  0.79420  0.09680  Biso   1.000  H
  H5       1.0000 0.31480  0.79420  0.79420  Biso   1.000  H
  H6       1.0000 0.09680  0.79420  0.79420  Biso   1.000  H
  H7       1.0000 0.79420  0.31480  0.09680  Biso   1.000  H
  H8       1.0000 0.79420  0.09680  0.31480  Biso   1.000  H
  H9       1.0000 0.31480  0.79420  0.09680  Biso   1.000  H
  H10      1.0000 0.09680  0.79420  0.31480  Biso   1.000  H
  H11      1.0000 0.79420  0.09680  0.79420  Biso   1.000  H
  H12      1.0000 0.79420  0.31480  0.79420  Biso   1.000  H
  C1       1.0000 0.33050  0.21250  0.72850  Biso   1.000  C
  C2       1.0000 0.28810  0.15890  0.77650  Biso   1.000  C
  C3       1.0000 0.21250  0.33050  0.72850  Biso   1.000  C
  C4       1.0000 0.15890  0.28810  0.77650  Biso   1.000  C
  C5       1.0000 0.72850  0.72850  0.33050  Biso   1.000  C
  C6       1.0000 0.77650  0.77650  0.28810  Biso   1.000  C
  C7       1.0000 0.72850  0.72850  0.21250  Biso   1.000  C
  C8       1.0000 0.77650  0.77650  0.15890  Biso   1.000  C
  C9       1.0000 0.33050  0.72850  0.72850  Biso   1.000  C
  C10      1.0000 0.28810  0.77650  0.77650  Biso   1.000  C
  C11      1.0000 0.21250  0.72850  0.72850  Biso   1.000  C
  C12      1.0000 0.15890  0.77650  0.77650  Biso   1.000  C
  C13      1.0000 0.72850  0.33050  0.21250  Biso   1.000  C
  C14      1.0000 0.77650  0.28810  0.15890  Biso   1.000  C
  C15      1.0000 0.72850  0.21250  0.33050  Biso   1.000  C
  C16      1.0000 0.77650  0.15890  0.28810  Biso   1.000  C
  C17      1.0000 0.33050  0.72850  0.21250  Biso   1.000  C
  C18      1.0000 0.28810  0.77650  0.15890  Biso   1.000  C
  C19      1.0000 0.21250  0.72850  0.33050  Biso   1.000  C
  C20      1.0000 0.15890  0.77650  0.28810  Biso   1.000  C
  C21      1.0000 0.72850  0.21250  0.72850  Biso   1.000  C
  C22      1.0000 0.77650  0.15890  0.77650  Biso   1.000  C
  C23      1.0000 0.72850  0.33050  0.72850  Biso   1.000  C
  C24      1.0000 0.77650  0.28810  0.77650  Biso   1.000  C
  C25      1.0000 0.30490  0.30490  0.69510  Biso   1.000  C
  C26      1.0000 0.20070  0.20070  0.79930  Biso   1.000  C
  C27      1.0000 0.13930  0.13930  0.86070  Biso   1.000  C
  C28      1.0000 0.36170  0.36170  0.63830  Biso   1.000  C
  C29      1.0000 0.69510  0.69510  0.30490  Biso   1.000  C
  C30      1.0000 0.79930  0.79930  0.20070  Biso   1.000  C
  C31      1.0000 0.86070  0.86070  0.13930  Biso   1.000  C
  C32      1.0000 0.63830  0.63830  0.36170  Biso   1.000  C
  C33      1.0000 0.30490  0.69510  0.69510  Biso   1.000  C
  C34      1.0000 0.20070  0.79930  0.79930  Biso   1.000  C
  C35      1.0000 0.13930  0.86070  0.86070  Biso   1.000  C
  C36      1.0000 0.36170  0.63830  0.63830  Biso   1.000  C
  C37      1.0000 0.69510  0.30490  0.30490  Biso   1.000  C
  C38      1.0000 0.79930  0.20070  0.20070  Biso   1.000  C
  C39      1.0000 0.86070  0.13930  0.13930  Biso   1.000  C
  C40      1.0000 0.63830  0.36170  0.36170  Biso   1.000  C
  C41      1.0000 0.30490  0.69510  0.30490  Biso   1.000  C
  C42      1.0000 0.20070  0.79930  0.20070  Biso   1.000  C
  C43      1.0000 0.13930  0.86070  0.13930  Biso   1.000  C
  C44      1.0000 0.36170  0.63830  0.36170  Biso   1.000  C
  C45      1.0000 0.69510  0.30490  0.69510  Biso   1.000  C
  C46      1.0000 0.79930  0.20070  0.79930  Biso   1.000  C
  C47      1.0000 0.86070  0.13930  0.86070  Biso   1.000  C
  C48      1.0000 0.63830  0.36170  0.63830  Biso   1.000  C
  O1       1.0000 0.17850  0.05170  0.88490  Biso   1.000  O
  O2       1.0000 0.44150  0.32470  0.61690  Biso   1.000  O
  O3       1.0000 0.05170  0.17850  0.88490  Biso   1.000  O
  O4       1.0000 0.32470  0.44150  0.61690  Biso   1.000  O
  O5       1.0000 0.88490  0.88490  0.17850  Biso   1.000  O
  O6       1.0000 0.61690  0.61690  0.44150  Biso   1.000  O
  O7       1.0000 0.88490  0.88490  0.05170  Biso   1.000  O
  O8       1.0000 0.61690  0.61690  0.32470  Biso   1.000  O
  O9       1.0000 0.17850  0.88490  0.88490  Biso   1.000  O
  O10      1.0000 0.44150  0.61690  0.61690  Biso   1.000  O
  O11      1.0000 0.05170  0.88490  0.88490  Biso   1.000  O
  O12      1.0000 0.32470  0.61690  0.61690  Biso   1.000  O
  O13      1.0000 0.88490  0.17850  0.05170  Biso   1.000  O
  O14      1.0000 0.61690  0.44150  0.32470  Biso   1.000  O
  O15      1.0000 0.88490  0.05170  0.17850  Biso   1.000  O
  O16      1.0000 0.61690  0.32470  0.44150  Biso   1.000  O
  O17      1.0000 0.17850  0.88490  0.05170  Biso   1.000  O
  O18      1.0000 0.44150  0.61690  0.32470  Biso   1.000  O
  O19      1.0000 0.05170  0.88490  0.17850  Biso   1.000  O
  O20      1.0000 0.32470  0.61690  0.44150  Biso   1.000  O
  O21      1.0000 0.88490  0.05170  0.88490  Biso   1.000  O
  O22      1.0000 0.61690  0.32470  0.61690  Biso   1.000  O
  O23      1.0000 0.88490  0.17850  0.88490  Biso   1.000  O
  O24      1.0000 0.61690  0.44150  0.61690  Biso   1.000  O
  O25      1.0000 0.00000  0.00000  0.00000  Biso   1.000  O
  O26      1.0000 0.50000  0.50000  0.50000  Biso   1.000  O
  Zn9      1.0000 0.34621  0.99361  0.15493  Biso   1.000  Zn
  Zn10     1.0000 0.91600  0.41263  0.74703  Biso   1.000  Zn
  Zn11     1.0000 0.91600  0.58589  0.74703  Biso   1.000  Zn
  Zn12     1.0000 0.34621  0.16687  0.15493  Biso   1.000  Zn
  Zn13     1.0000 0.34617  0.99353  0.32840  Biso   1.000  Zn
  Zn14     1.0000 0.51924  0.99378  0.15480  Biso   1.000  Zn
  Zn15     1.0000 0.91604  0.58597  0.57356  Biso   1.000  Zn
  Zn16     1.0000 0.74297  0.58572  0.74716  Biso   1.000  Zn
  H13      1.0000 0.17104  0.83724  0.52211  Biso   1.000  H
  H14      1.0000 0.17009  0.83878  0.29103  Biso   1.000  H
  H15      1.0000 0.16720  0.12974  0.00093  Biso   1.000  H
  H16      1.0000 0.09118  0.44835  0.37985  Biso   1.000  H
  H17      1.0000 0.09212  0.21778  0.61093  Biso   1.000  H
  H18      1.0000 0.09501  0.21578  0.90103  Biso   1.000  H
  H19      1.0000 0.09118  0.74226  0.37985  Biso   1.000  H
  H20      1.0000 0.09212  0.74072  0.61093  Biso   1.000  H
  H21      1.0000 0.09501  0.44976  0.90103  Biso   1.000  H
  H22      1.0000 0.17104  0.13115  0.52211  Biso   1.000  H
  H23      1.0000 0.17009  0.36173  0.29103  Biso   1.000  H
  H24      1.0000 0.16720  0.36372  0.00093  Biso   1.000  H
  C49      1.0000 0.25920  0.90563  0.33286  Biso   1.000  C
  C50      1.0000 0.19531  0.84125  0.39201  Biso   1.000  C
  C51      1.0000 0.15541  0.81588  0.49580  Biso   1.000  C
  C52      1.0000 0.15546  0.81732  0.35413  Biso   1.000  C
  C53      1.0000 0.52016  0.90624  0.06769  Biso   1.000  C
  C54      1.0000 0.15385  0.19274  0.97729  Biso   1.000  C
  C55      1.0000 0.00302  0.41556  0.56909  Biso   1.000  C
  C56      1.0000 0.06690  0.34644  0.50995  Biso   1.000  C
  C57      1.0000 0.10680  0.38506  0.40616  Biso   1.000  C
  C58      1.0000 0.10676  0.24478  0.54783  Biso   1.000  C
  C59      1.0000 0.74205  0.41199  0.83427  Biso   1.000  C
  C60      1.0000 0.10836  0.24179  0.92467  Biso   1.000  C
  C61      1.0000 0.00302  0.67387  0.56909  Biso   1.000  C
  C62      1.0000 0.06690  0.73825  0.50995  Biso   1.000  C
  C63      1.0000 0.10680  0.76362  0.40616  Biso   1.000  C
  C64      1.0000 0.10676  0.76218  0.54783  Biso   1.000  C
  C65      1.0000 0.74205  0.67326  0.83427  Biso   1.000  C
  C66      1.0000 0.10836  0.38676  0.92467  Biso   1.000  C
  C67      1.0000 0.25920  0.16394  0.33286  Biso   1.000  C
  C68      1.0000 0.19532  0.23306  0.39201  Biso   1.000  C
  C69      1.0000 0.15541  0.19444  0.49580  Biso   1.000  C
  C70      1.0000 0.15546  0.33472  0.35413  Biso   1.000  C
  C71      1.0000 0.52016  0.16751  0.06769  Biso   1.000  C
  C72      1.0000 0.15385  0.33771  0.97729  Biso   1.000  C
  C73      1.0000 0.51819  0.90534  0.33277  Biso   1.000  C
  C74      1.0000 0.25582  0.16860  0.06858  Biso   1.000  C
  C75      1.0000 0.19510  0.23328  0.99994  Biso   1.000  C
  C76      1.0000 0.74402  0.67417  0.56919  Biso   1.000  C
  C77      1.0000 0.00639  0.41090  0.83338  Biso   1.000  C
  C78      1.0000 0.06712  0.34622  0.90202  Biso   1.000  C
  O27      1.0000 0.27660  0.92185  0.37658  Biso   1.000  O
  O28      1.0000 0.27462  0.92106  0.25038  Biso   1.000  O
  O29      1.0000 0.56921  0.92167  0.08391  Biso   1.000  O
  O30      1.0000 0.43936  0.92147  0.08381  Biso   1.000  O
  O31      1.0000 0.27540  0.08731  0.08223  Biso   1.000  O
  O32      1.0000 0.98561  0.49290  0.52538  Biso   1.000  O
  O33      1.0000 0.98759  0.36394  0.65158  Biso   1.000  O
  O34      1.0000 0.69300  0.49268  0.81805  Biso   1.000  O
  O35      1.0000 0.82285  0.36254  0.81815  Biso   1.000  O
  O36      1.0000 0.98681  0.36284  0.81973  Biso   1.000  O
  O37      1.0000 0.98561  0.65765  0.52538  Biso   1.000  O
  O38      1.0000 0.98759  0.65844  0.65158  Biso   1.000  O
  O39      1.0000 0.69300  0.65784  0.81805  Biso   1.000  O
  O40      1.0000 0.82285  0.65803  0.81815  Biso   1.000  O
  O41      1.0000 0.98681  0.49219  0.81973  Biso   1.000  O
  O42      1.0000 0.27660  0.08660  0.37658  Biso   1.000  O
  O43      1.0000 0.27462  0.21557  0.25038  Biso   1.000  O
  O44      1.0000 0.56921  0.08682  0.08391  Biso   1.000  O
  O45      1.0000 0.43936  0.21696  0.08381  Biso   1.000  O
  O46      1.0000 0.27540  0.21666  0.08223  Biso   1.000  O
  O47      1.0000 0.38804  0.03825  0.19706  Biso   1.000  O
  O48      1.0000 0.43968  0.92195  0.37807  Biso   1.000  O
  O49      1.0000 0.56892  0.92205  0.24859  Biso   1.000  O
  O50      1.0000 0.87417  0.54125  0.70490  Biso   1.000  O
  O51      1.0000 0.82254  0.65755  0.52389  Biso   1.000  O
  O52      1.0000 0.69329  0.65745  0.65336  Biso   1.000  O
