data_image0
_cell_length_a       18.2016
_cell_length_b       18.2016
_cell_length_c       18.2016
_cell_angle_alpha    60
_cell_angle_beta     60
_cell_angle_gamma    60

loop_
  _atom_site_label
  _atom_site_occupancy
  _atom_site_fract_x
  _atom_site_fract_y
  _atom_site_fract_z
  _atom_site_thermal_displace_type
  _atom_site_B_iso_or_equiv
  _atom_site_type_symbol
  C1       1.0000 0.54338  0.36986  0.54338  Biso   1.000  C
  C2       1.0000 0.36986  0.54338  0.54338  Biso   1.000  C
  C3       1.0000 0.54338  0.54338  0.54338  Biso   1.000  C
  C4       1.0000 0.54338  0.54338  0.36986  Biso   1.000  C
  C5       1.0000 0.13029  0.95657  0.95657  Biso   1.000  C
  C6       1.0000 0.95657  0.13029  0.95657  Biso   1.000  C
  C7       1.0000 0.95657  0.95657  0.13029  Biso   1.000  C
  C8       1.0000 0.95657  0.95657  0.95657  Biso   1.000  C
  C9       1.0000 0.31480  0.09680  0.79420  Biso   1.000  C
  C10      1.0000 0.09680  0.31480  0.79420  Biso   1.000  C
  C11      1.0000 0.79420  0.79420  0.31480  Biso   1.000  C
  C12      1.0000 0.79420  0.79420  0.09680  Biso   1.000  C
  C13      1.0000 0.31480  0.79420  0.79420  Biso   1.000  C
  C14      1.0000 0.09680  0.79420  0.79420  Biso   1.000  C
  C15      1.0000 0.79420  0.31480  0.09680  Biso   1.000  C
  C16      1.0000 0.79420  0.09680  0.31480  Biso   1.000  C
  C17      1.0000 0.31480  0.79420  0.09680  Biso   1.000  C
  C18      1.0000 0.09680  0.79420  0.31480  Biso   1.000  C
  C19      1.0000 0.79420  0.09680  0.79420  Biso   1.000  C
  C20      1.0000 0.79420  0.31480  0.79420  Biso   1.000  C
  C21      1.0000 0.33050  0.21250  0.72850  Biso   1.000  C
  C22      1.0000 0.28810  0.15890  0.77650  Biso   1.000  C
  C23      1.0000 0.21250  0.33050  0.72850  Biso   1.000  C
  C24      1.0000 0.15890  0.28810  0.77650  Biso   1.000  C
  C25      1.0000 0.72850  0.72850  0.33050  Biso   1.000  C
  C26      1.0000 0.77650  0.77650  0.28810  Biso   1.000  C
  C27      1.0000 0.72850  0.72850  0.21250  Biso   1.000  C
  C28      1.0000 0.77650  0.77650  0.15890  Biso   1.000  C
  C29      1.0000 0.33050  0.72850  0.72850  Biso   1.000  C
  C30      1.0000 0.28810  0.77650  0.77650  Biso   1.000  C
  C31      1.0000 0.21250  0.72850  0.72850  Biso   1.000  C
  C32      1.0000 0.15890  0.77650  0.77650  Biso   1.000  C
  C33      1.0000 0.72850  0.33050  0.21250  Biso   1.000  C
  C34      1.0000 0.77650  0.28810  0.15890  Biso   1.000  C
  C35      1.0000 0.72850  0.21250  0.33050  Biso   1.000  C
  C36      1.0000 0.77650  0.15890  0.28810  Biso   1.000  C
  C37      1.0000 0.33050  0.72850  0.21250  Biso   1.000  C
  C38      1.0000 0.28810  0.77650  0.15890  Biso   1.000  C
  C39      1.0000 0.21250  0.72850  0.33050  Biso   1.000  C
  C40      1.0000 0.15890  0.77650  0.28810  Biso   1.000  C
  C41      1.0000 0.72850  0.21250  0.72850  Biso   1.000  C
  C42      1.0000 0.77650  0.15890  0.77650  Biso   1.000  C
  C43      1.0000 0.72850  0.33050  0.72850  Biso   1.000  C
  C44      1.0000 0.77650  0.28810  0.77650  Biso   1.000  C
  C45      1.0000 0.30490  0.30490  0.69510  Biso   1.000  C
  C46      1.0000 0.20070  0.20070  0.79930  Biso   1.000  C
  C47      1.0000 0.13930  0.13930  0.86070  Biso   1.000  C
  C48      1.0000 0.36170  0.36170  0.63830  Biso   1.000  C
  C49      1.0000 0.69510  0.69510  0.30490  Biso   1.000  C
  C50      1.0000 0.79930  0.79930  0.20070  Biso   1.000  C
  C51      1.0000 0.86070  0.86070  0.13930  Biso   1.000  C
  C52      1.0000 0.63830  0.63830  0.36170  Biso   1.000  C
  C53      1.0000 0.30490  0.69510  0.69510  Biso   1.000  C
  C54      1.0000 0.20070  0.79930  0.79930  Biso   1.000  C
  C55      1.0000 0.13930  0.86070  0.86070  Biso   1.000  C
  C56      1.0000 0.36170  0.63830  0.63830  Biso   1.000  C
  C57      1.0000 0.69510  0.30490  0.30490  Biso   1.000  C
  C58      1.0000 0.79930  0.20070  0.20070  Biso   1.000  C
  C59      1.0000 0.86070  0.13930  0.13930  Biso   1.000  C
  C60      1.0000 0.63830  0.36170  0.36170  Biso   1.000  C
  C61      1.0000 0.30490  0.69510  0.30490  Biso   1.000  C
  C62      1.0000 0.20070  0.79930  0.20070  Biso   1.000  C
  C63      1.0000 0.13930  0.86070  0.13930  Biso   1.000  C
  C64      1.0000 0.36170  0.63830  0.36170  Biso   1.000  C
  C65      1.0000 0.69510  0.30490  0.69510  Biso   1.000  C
  C66      1.0000 0.79930  0.20070  0.79930  Biso   1.000  C
  C67      1.0000 0.86070  0.13930  0.86070  Biso   1.000  C
  C68      1.0000 0.63830  0.36170  0.63830  Biso   1.000  C
  C69      1.0000 0.17850  0.05170  0.88490  Biso   1.000  C
  C70      1.0000 0.44150  0.32470  0.61690  Biso   1.000  C
  C71      1.0000 0.05170  0.17850  0.88490  Biso   1.000  C
  C72      1.0000 0.32470  0.44150  0.61690  Biso   1.000  C
  C73      1.0000 0.88490  0.88490  0.17850  Biso   1.000  C
  C74      1.0000 0.61690  0.61690  0.44150  Biso   1.000  C
  C75      1.0000 0.88490  0.88490  0.05170  Biso   1.000  C
  C76      1.0000 0.61690  0.61690  0.32470  Biso   1.000  C
  C77      1.0000 0.17850  0.88490  0.88490  Biso   1.000  C
  C78      1.0000 0.44150  0.61690  0.61690  Biso   1.000  C
  C79      1.0000 0.05170  0.88490  0.88490  Biso   1.000  C
  C80      1.0000 0.32470  0.61690  0.61690  Biso   1.000  C
  C81      1.0000 0.88490  0.17850  0.05170  Biso   1.000  C
  C82      1.0000 0.61690  0.44150  0.32470  Biso   1.000  C
  C83      1.0000 0.88490  0.05170  0.17850  Biso   1.000  C
  C84      1.0000 0.61690  0.32470  0.44150  Biso   1.000  C
  C85      1.0000 0.17850  0.88490  0.05170  Biso   1.000  C
  C86      1.0000 0.44150  0.61690  0.32470  Biso   1.000  C
  C87      1.0000 0.05170  0.88490  0.17850  Biso   1.000  C
  C88      1.0000 0.32470  0.61690  0.44150  Biso   1.000  C
  C89      1.0000 0.88490  0.05170  0.88490  Biso   1.000  C
  C90      1.0000 0.61690  0.32470  0.61690  Biso   1.000  C
  C91      1.0000 0.88490  0.17850  0.88490  Biso   1.000  C
  C92      1.0000 0.61690  0.44150  0.61690  Biso   1.000  C
  C93      1.0000 0.00000  0.00000  0.00000  Biso   1.000  C
  C94      1.0000 0.50000  0.50000  0.50000  Biso   1.000  C
  O1       1.0000 0.15982  0.33098  0.33549  Biso   1.000  O
  O2       1.0000 0.33213  0.33093  0.16318  Biso   1.000  O
  O3       1.0000 0.33218  0.15863  0.33549  Biso   1.000  O
  O4       1.0000 0.33213  0.33093  0.33554  Biso   1.000  O
  O5       1.0000 0.92114  0.74192  0.75218  Biso   1.000  O
  O6       1.0000 0.74883  0.74197  0.92449  Biso   1.000  O
  O7       1.0000 0.74878  0.91427  0.75218  Biso   1.000  O
  O8       1.0000 0.74883  0.74197  0.75213  Biso   1.000  O
  O9       1.0000 0.00171  0.51039  0.13572  Biso   1.000  O
  O10      1.0000 0.00070  0.13098  0.51982  Biso   1.000  O
  O11      1.0000 0.00190  0.51101  0.51882  Biso   1.000  O
  O12      1.0000 0.13237  0.50940  0.00507  Biso   1.000  O
  O13      1.0000 0.51647  0.51139  0.00406  Biso   1.000  O
  O14      1.0000 0.51547  0.13117  0.00525  Biso   1.000  O
  O15      1.0000 0.51725  0.99485  0.51961  Biso   1.000  O
  O16      1.0000 0.13215  0.99384  0.52161  Biso   1.000  O
  O17      1.0000 0.51786  0.99502  0.13571  Biso   1.000  O
  O18      1.0000 0.51625  0.13119  0.52060  Biso   1.000  O
  O19      1.0000 0.51826  0.50960  0.13551  Biso   1.000  O
  O20      1.0000 0.13235  0.50862  0.52121  Biso   1.000  O
  O21      1.0000 0.07925  0.56251  0.95195  Biso   1.000  O
  O22      1.0000 0.08025  0.94194  0.57351  Biso   1.000  O
  O23      1.0000 0.07906  0.56191  0.57451  Biso   1.000  O
  O24      1.0000 0.94860  0.56350  0.08260  Biso   1.000  O
  O25      1.0000 0.57016  0.56151  0.08361  Biso   1.000  O
  O26      1.0000 0.57116  0.94173  0.08242  Biso   1.000  O
  O27      1.0000 0.56937  0.07238  0.57372  Biso   1.000  O
  O28      1.0000 0.94880  0.07338  0.57172  Biso   1.000  O
  O29      1.0000 0.56877  0.07218  0.95196  Biso   1.000  O
  O30      1.0000 0.57037  0.94173  0.57273  Biso   1.000  O
  O31      1.0000 0.56837  0.56330  0.95216  Biso   1.000  O
  O32      1.0000 0.94860  0.56430  0.57212  Biso   1.000  O
  O33      1.0000 0.09398  0.48295  0.09733  Biso   1.000  O
  O34      1.0000 0.15232  0.42461  0.15568  Biso   1.000  O
  O35      1.0000 0.48981  0.09280  0.49317  Biso   1.000  O
  O36      1.0000 0.42581  0.15113  0.42916  Biso   1.000  O
  O37      1.0000 0.98699  0.58994  0.99034  Biso   1.000  O
  O38      1.0000 0.92864  0.64829  0.93199  Biso   1.000  O
  O39      1.0000 0.59681  0.98012  0.60016  Biso   1.000  O
  O40      1.0000 0.65515  0.92177  0.65851  Biso   1.000  O
  O41      1.0000 0.09377  0.48317  0.49337  Biso   1.000  O
  O42      1.0000 0.15185  0.42508  0.42964  Biso   1.000  O
  O43      1.0000 0.49002  0.08690  0.09713  Biso   1.000  O
  O44      1.0000 0.42628  0.15066  0.15520  Biso   1.000  O
  O45      1.0000 0.98718  0.58975  0.59996  Biso   1.000  O
  O46      1.0000 0.92911  0.64782  0.65803  Biso   1.000  O
  O47      1.0000 0.59661  0.98031  0.99054  Biso   1.000  O
  O48      1.0000 0.65468  0.92224  0.93247  Biso   1.000  O
  O49      1.0000 0.09357  0.08671  0.49357  Biso   1.000  O
  O50      1.0000 0.15165  0.15045  0.42984  Biso   1.000  O
  O51      1.0000 0.49022  0.48335  0.09693  Biso   1.000  O
  O52      1.0000 0.42648  0.42528  0.15500  Biso   1.000  O
  O53      1.0000 0.98738  0.98052  0.59976  Biso   1.000  O
  O54      1.0000 0.92931  0.92245  0.65783  Biso   1.000  O
  O55      1.0000 0.59641  0.58955  0.99074  Biso   1.000  O
  O56      1.0000 0.65448  0.64762  0.93267  Biso   1.000  O
  O57      1.0000 0.11192  0.40213  0.23944  Biso   1.000  O
  O58      1.0000 0.11241  0.40406  0.40669  Biso   1.000  O
  O59      1.0000 0.11156  0.23531  0.40705  Biso   1.000  O
  O60      1.0000 0.23609  0.40373  0.11527  Biso   1.000  O
  O61      1.0000 0.40333  0.23406  0.11577  Biso   1.000  O
  O62      1.0000 0.40369  0.40331  0.11491  Biso   1.000  O
  O63      1.0000 0.40334  0.11072  0.40828  Biso   1.000  O
  O64      1.0000 0.40526  0.11122  0.23861  Biso   1.000  O
  O65      1.0000 0.23651  0.11036  0.40786  Biso   1.000  O
  O66      1.0000 0.40493  0.23489  0.40669  Biso   1.000  O
  O67      1.0000 0.23525  0.40213  0.40862  Biso   1.000  O
  O68      1.0000 0.40451  0.40249  0.23986  Biso   1.000  O
  O69      1.0000 0.96905  0.67076  0.84823  Biso   1.000  O
  O70      1.0000 0.96855  0.66884  0.68098  Biso   1.000  O
  O71      1.0000 0.96940  0.83759  0.68062  Biso   1.000  O
  O72      1.0000 0.84488  0.66917  0.97240  Biso   1.000  O
  O73      1.0000 0.67763  0.83884  0.97190  Biso   1.000  O
  O74      1.0000 0.67727  0.66959  0.97276  Biso   1.000  O
  O75      1.0000 0.67763  0.96218  0.67939  Biso   1.000  O
  O76      1.0000 0.67570  0.96168  0.84906  Biso   1.000  O
  O77      1.0000 0.84446  0.96254  0.67981  Biso   1.000  O
  O78      1.0000 0.67603  0.83801  0.68098  Biso   1.000  O
  O79      1.0000 0.84571  0.67077  0.67905  Biso   1.000  O
  O80      1.0000 0.67645  0.67041  0.84781  Biso   1.000  O
  O81      1.0000 0.28907  0.28787  0.29242  Biso   1.000  O
  O82      1.0000 0.79190  0.78503  0.79525  Biso   1.000  O
  O83      1.0000 0.96871  0.20715  0.49700  Biso   1.000  O
  O84      1.0000 0.20832  0.96185  0.50026  Biso   1.000  O
  O85      1.0000 0.11225  0.86577  0.59633  Biso   1.000  O
  O86      1.0000 0.87263  0.11108  0.59307  Biso   1.000  O
  O87      1.0000 0.49677  0.96302  0.21187  Biso   1.000  O
  O88      1.0000 0.59422  0.86557  0.11441  Biso   1.000  O
  O89      1.0000 0.96990  0.48992  0.49575  Biso   1.000  O
  O90      1.0000 0.87245  0.58737  0.59321  Biso   1.000  O
  O91      1.0000 0.20853  0.48691  0.97306  Biso   1.000  O
  O92      1.0000 0.49365  0.49005  0.97206  Biso   1.000  O
  O93      1.0000 0.59286  0.86556  0.59439  Biso   1.000  O
  O94      1.0000 0.58972  0.58612  0.87599  Biso   1.000  O
  O95      1.0000 0.49240  0.20733  0.97326  Biso   1.000  O
  O96      1.0000 0.58986  0.10988  0.87580  Biso   1.000  O
  O97      1.0000 0.20851  0.48555  0.50012  Biso   1.000  O
  O98      1.0000 0.11106  0.58300  0.59757  Biso   1.000  O
  O99      1.0000 0.59104  0.11008  0.59621  Biso   1.000  O
  O100     1.0000 0.49691  0.48678  0.21168  Biso   1.000  O
  O101     1.0000 0.59298  0.58285  0.11561  Biso   1.000  O
  O102     1.0000 0.49376  0.20736  0.49894  Biso   1.000  O
  O103     1.0000 0.87243  0.58599  0.11461  Biso   1.000  O
  O104     1.0000 0.96971  0.48872  0.21189  Biso   1.000  O
  O105     1.0000 0.11126  0.58418  0.87578  Biso   1.000  O
  O106     1.0000 0.49558  0.96284  0.49712  Biso   1.000  O
