data_image0
_cell_length_a       18.2016
_cell_length_b       18.2016
_cell_length_c       18.2016
_cell_angle_alpha    60
_cell_angle_beta     60
_cell_angle_gamma    60

_symmetry_space_group_name_H-M    "P 1"
_symmetry_int_tables_number       1

loop_
  _symmetry_equiv_pos_as_xyz
  'x, y, z'

loop_
  _atom_site_label
  _atom_site_occupancy
  _atom_site_fract_x
  _atom_site_fract_y
  _atom_site_fract_z
  _atom_site_thermal_displace_type
  _atom_site_B_iso_or_equiv
  _atom_site_type_symbol
  Zn1      1.0000 0.54338  0.36986  0.54338  Biso   1.000  Zn
  Zn2      1.0000 0.36986  0.54338  0.54338  Biso   1.000  Zn
  Zn3      1.0000 0.54338  0.54338  0.54338  Biso   1.000  Zn
  Zn4      1.0000 0.54338  0.54338  0.36986  Biso   1.000  Zn
  Zn5      1.0000 0.13029  0.95657  0.95657  Biso   1.000  Zn
  Zn6      1.0000 0.95657  0.13029  0.95657  Biso   1.000  Zn
  Zn7      1.0000 0.95657  0.95657  0.13029  Biso   1.000  Zn
  Zn8      1.0000 0.95657  0.95657  0.95657  Biso   1.000  Zn
  H1       1.0000 0.31480  0.09680  0.79420  Biso   1.000  H
  H2       1.0000 0.09680  0.31480  0.79420  Biso   1.000  H
  H3       1.0000 0.79420  0.79420  0.31480  Biso   1.000  H
  H4       1.0000 0.79420  0.79420  0.09680  Biso   1.000  H
  H5       1.0000 0.31480  0.79420  0.79420  Biso   1.000  H
  H6       1.0000 0.09680  0.79420  0.79420  Biso   1.000  H
  H7       1.0000 0.79420  0.31480  0.09680  Biso   1.000  H
  H8       1.0000 0.79420  0.09680  0.31480  Biso   1.000  H
  H9       1.0000 0.31480  0.79420  0.09680  Biso   1.000  H
  H10      1.0000 0.09680  0.79420  0.31480  Biso   1.000  H
  H11      1.0000 0.79420  0.09680  0.79420  Biso   1.000  H
  H12      1.0000 0.79420  0.31480  0.79420  Biso   1.000  H
  C1       1.0000 0.33050  0.21250  0.72850  Biso   1.000  C
  C2       1.0000 0.28810  0.15890  0.77650  Biso   1.000  C
  C3       1.0000 0.21250  0.33050  0.72850  Biso   1.000  C
  C4       1.0000 0.15890  0.28810  0.77650  Biso   1.000  C
  C5       1.0000 0.72850  0.72850  0.33050  Biso   1.000  C
  C6       1.0000 0.77650  0.77650  0.28810  Biso   1.000  C
  C7       1.0000 0.72850  0.72850  0.21250  Biso   1.000  C
  C8       1.0000 0.77650  0.77650  0.15890  Biso   1.000  C
  C9       1.0000 0.33050  0.72850  0.72850  Biso   1.000  C
  C10      1.0000 0.28810  0.77650  0.77650  Biso   1.000  C
  C11      1.0000 0.21250  0.72850  0.72850  Biso   1.000  C
  C12      1.0000 0.15890  0.77650  0.77650  Biso   1.000  C
  C13      1.0000 0.72850  0.33050  0.21250  Biso   1.000  C
  C14      1.0000 0.77650  0.28810  0.15890  Biso   1.000  C
  C15      1.0000 0.72850  0.21250  0.33050  Biso   1.000  C
  C16      1.0000 0.77650  0.15890  0.28810  Biso   1.000  C
  C17      1.0000 0.33050  0.72850  0.21250  Biso   1.000  C
  C18      1.0000 0.28810  0.77650  0.15890  Biso   1.000  C
  C19      1.0000 0.21250  0.72850  0.33050  Biso   1.000  C
  C20      1.0000 0.15890  0.77650  0.28810  Biso   1.000  C
  C21      1.0000 0.72850  0.21250  0.72850  Biso   1.000  C
  C22      1.0000 0.77650  0.15890  0.77650  Biso   1.000  C
  C23      1.0000 0.72850  0.33050  0.72850  Biso   1.000  C
  C24      1.0000 0.77650  0.28810  0.77650  Biso   1.000  C
  C25      1.0000 0.30490  0.30490  0.69510  Biso   1.000  C
  C26      1.0000 0.20070  0.20070  0.79930  Biso   1.000  C
  C27      1.0000 0.13930  0.13930  0.86070  Biso   1.000  C
  C28      1.0000 0.36170  0.36170  0.63830  Biso   1.000  C
  C29      1.0000 0.69510  0.69510  0.30490  Biso   1.000  C
  C30      1.0000 0.79930  0.79930  0.20070  Biso   1.000  C
  C31      1.0000 0.86070  0.86070  0.13930  Biso   1.000  C
  C32      1.0000 0.63830  0.63830  0.36170  Biso   1.000  C
  C33      1.0000 0.30490  0.69510  0.69510  Biso   1.000  C
  C34      1.0000 0.20070  0.79930  0.79930  Biso   1.000  C
  C35      1.0000 0.13930  0.86070  0.86070  Biso   1.000  C
  C36      1.0000 0.36170  0.63830  0.63830  Biso   1.000  C
  C37      1.0000 0.69510  0.30490  0.30490  Biso   1.000  C
  C38      1.0000 0.79930  0.20070  0.20070  Biso   1.000  C
  C39      1.0000 0.86070  0.13930  0.13930  Biso   1.000  C
  C40      1.0000 0.63830  0.36170  0.36170  Biso   1.000  C
  C41      1.0000 0.30490  0.69510  0.30490  Biso   1.000  C
  C42      1.0000 0.20070  0.79930  0.20070  Biso   1.000  C
  C43      1.0000 0.13930  0.86070  0.13930  Biso   1.000  C
  C44      1.0000 0.36170  0.63830  0.36170  Biso   1.000  C
  C45      1.0000 0.69510  0.30490  0.69510  Biso   1.000  C
  C46      1.0000 0.79930  0.20070  0.79930  Biso   1.000  C
  C47      1.0000 0.86070  0.13930  0.86070  Biso   1.000  C
  C48      1.0000 0.63830  0.36170  0.63830  Biso   1.000  C
  O1       1.0000 0.17850  0.05170  0.88490  Biso   1.000  O
  O2       1.0000 0.44150  0.32470  0.61690  Biso   1.000  O
  O3       1.0000 0.05170  0.17850  0.88490  Biso   1.000  O
  O4       1.0000 0.32470  0.44150  0.61690  Biso   1.000  O
  O5       1.0000 0.88490  0.88490  0.17850  Biso   1.000  O
  O6       1.0000 0.61690  0.61690  0.44150  Biso   1.000  O
  O7       1.0000 0.88490  0.88490  0.05170  Biso   1.000  O
  O8       1.0000 0.61690  0.61690  0.32470  Biso   1.000  O
  O9       1.0000 0.17850  0.88490  0.88490  Biso   1.000  O
  O10      1.0000 0.44150  0.61690  0.61690  Biso   1.000  O
  O11      1.0000 0.05170  0.88490  0.88490  Biso   1.000  O
  O12      1.0000 0.32470  0.61690  0.61690  Biso   1.000  O
  O13      1.0000 0.88490  0.17850  0.05170  Biso   1.000  O
  O14      1.0000 0.61690  0.44150  0.32470  Biso   1.000  O
  O15      1.0000 0.88490  0.05170  0.17850  Biso   1.000  O
  O16      1.0000 0.61690  0.32470  0.44150  Biso   1.000  O
  O17      1.0000 0.17850  0.88490  0.05170  Biso   1.000  O
  O18      1.0000 0.44150  0.61690  0.32470  Biso   1.000  O
  O19      1.0000 0.05170  0.88490  0.17850  Biso   1.000  O
  O20      1.0000 0.32470  0.61690  0.44150  Biso   1.000  O
  O21      1.0000 0.88490  0.05170  0.88490  Biso   1.000  O
  O22      1.0000 0.61690  0.32470  0.61690  Biso   1.000  O
  O23      1.0000 0.88490  0.17850  0.88490  Biso   1.000  O
  O24      1.0000 0.61690  0.44150  0.61690  Biso   1.000  O
  O25      1.0000 0.00000  0.00000  0.00000  Biso   1.000  O
  O26      1.0000 0.50000  0.50000  0.50000  Biso   1.000  O
  Zn9      1.0000 0.31721  0.01466  0.33468  Biso   1.000  Zn
  Zn10     1.0000 0.14487  0.18700  0.33468  Biso   1.000  Zn
  Zn11     1.0000 0.73625  0.60604  0.92606  Biso   1.000  Zn
  Zn12     1.0000 0.31721  0.18700  0.33468  Biso   1.000  Zn
  Zn13     1.0000 0.73625  0.77838  0.75372  Biso   1.000  Zn
  Zn14     1.0000 0.73625  0.60604  0.75372  Biso   1.000  Zn
  Zn15     1.0000 0.90859  0.60604  0.75372  Biso   1.000  Zn
  Zn16     1.0000 0.31721  0.18700  0.16234  Biso   1.000  Zn
  C49      1.0000 0.94054  0.93304  0.57425  Biso   1.000  C
  C50      1.0000 0.49668  0.86000  0.51415  Biso   1.000  C
  C51      1.0000 0.06324  0.42657  0.57425  Biso   1.000  C
  C52      1.0000 0.46818  0.94986  0.09754  Biso   1.000  C
  C53      1.0000 0.94054  0.42657  0.08072  Biso   1.000  C
  C54      1.0000 0.08007  0.94986  0.48565  Biso   1.000  C
  C55      1.0000 0.91520  0.78499  0.66094  Biso   1.000  C
  C56      1.0000 0.99021  0.98271  0.51415  Biso   1.000  C
  C57      1.0000 0.11292  0.86000  0.51415  Biso   1.000  C
  C58      1.0000 0.46818  0.33797  0.09754  Biso   1.000  C
  C59      1.0000 0.46818  0.94986  0.48565  Biso   1.000  C
  C60      1.0000 0.55678  0.93304  0.95801  Biso   1.000  C
  C61      1.0000 0.55678  0.81033  0.57425  Biso   1.000  C
  C62      1.0000 0.40999  0.00805  0.42746  Biso   1.000  C
  C63      1.0000 0.13825  0.27978  0.15573  Biso   1.000  C
  C64      1.0000 0.91520  0.51326  0.66094  Biso   1.000  C
  C65      1.0000 0.13825  0.27978  0.42746  Biso   1.000  C
  C66      1.0000 0.13825  0.00805  0.42746  Biso   1.000  C
  C67      1.0000 0.06324  0.81033  0.57425  Biso   1.000  C
  C68      1.0000 0.11292  0.36647  0.51415  Biso   1.000  C
  C69      1.0000 0.64347  0.78499  0.66094  Biso   1.000  C
  C70      1.0000 0.99021  0.36647  0.51415  Biso   1.000  C
  C71      1.0000 0.55678  0.81033  0.08072  Biso   1.000  C
  C72      1.0000 0.40999  0.27978  0.15573  Biso   1.000  C
  C73      1.0000 0.99021  0.36647  0.13039  Biso   1.000  C
  C74      1.0000 0.91520  0.51326  0.93267  Biso   1.000  C
  C75      1.0000 0.58528  0.84318  0.60275  Biso   1.000  C
  C76      1.0000 0.94054  0.42657  0.57425  Biso   1.000  C
  C77      1.0000 0.49668  0.36647  0.00768  Biso   1.000  C
  C78      1.0000 0.40999  0.00805  0.15573  Biso   1.000  C
  C79      1.0000 0.06324  0.42657  0.95801  Biso   1.000  C
  C80      1.0000 0.49668  0.36647  0.13039  Biso   1.000  C
  C81      1.0000 0.97339  0.45507  0.99086  Biso   1.000  C
  C82      1.0000 0.55678  0.93304  0.57425  Biso   1.000  C
  C83      1.0000 0.55678  0.42657  0.95801  Biso   1.000  C
  C84      1.0000 0.64347  0.78499  0.93267  Biso   1.000  C
  C85      1.0000 0.55678  0.42657  0.08072  Biso   1.000  C
  C86      1.0000 0.49668  0.86000  0.13039  Biso   1.000  C
  C87      1.0000 0.49668  0.98271  0.00768  Biso   1.000  C
  C88      1.0000 0.08007  0.33797  0.48565  Biso   1.000  C
  C89      1.0000 0.49668  0.98271  0.51415  Biso   1.000  C
  C90      1.0000 0.97339  0.45507  0.60275  Biso   1.000  C
  C91      1.0000 0.58528  0.84318  0.99086  Biso   1.000  C
  C92      1.0000 0.64347  0.51326  0.93267  Biso   1.000  C
  C93      1.0000 0.58528  0.45507  0.99086  Biso   1.000  C
  C94      1.0000 0.08007  0.33797  0.09754  Biso   1.000  C
  C95      1.0000 0.11292  0.36647  0.00768  Biso   1.000  C
  C96      1.0000 0.97339  0.84318  0.60275  Biso   1.000  C
  O27      1.0000 0.66415  0.82703  0.68162  Biso   1.000  O
  O28      1.0000 0.66415  0.82703  0.84927  Biso   1.000  O
  O29      1.0000 0.38931  0.96601  0.40678  Biso   1.000  O
  O30      1.0000 0.83180  0.53394  0.97471  Biso   1.000  O
  O31      1.0000 0.66415  0.53394  0.97471  Biso   1.000  O
  O32      1.0000 0.38931  0.96601  0.23913  Biso   1.000  O
  O33      1.0000 0.22166  0.25910  0.11369  Biso   1.000  O
  O34      1.0000 0.38931  0.25910  0.11369  Biso   1.000  O
  O35      1.0000 0.66415  0.70159  0.68162  Biso   1.000  O
  O36      1.0000 0.95724  0.70159  0.68162  Biso   1.000  O
  O37      1.0000 0.38931  0.09145  0.40678  Biso   1.000  O
  O38      1.0000 0.66415  0.53394  0.84927  Biso   1.000  O
  O39      1.0000 0.22166  0.25910  0.40678  Biso   1.000  O
  O40      1.0000 0.09622  0.09145  0.40678  Biso   1.000  O
  O41      1.0000 0.09622  0.25910  0.40678  Biso   1.000  O
  O42      1.0000 0.66415  0.70159  0.97471  Biso   1.000  O
  O43      1.0000 0.77934  0.64913  0.79681  Biso   1.000  O
  O44      1.0000 0.83180  0.82703  0.68162  Biso   1.000  O
  O45      1.0000 0.22166  0.96601  0.40678  Biso   1.000  O
  O46      1.0000 0.09622  0.25910  0.23913  Biso   1.000  O
  O47      1.0000 0.95724  0.53394  0.68162  Biso   1.000  O
  O48      1.0000 0.38931  0.25910  0.23913  Biso   1.000  O
  O49      1.0000 0.27412  0.14391  0.29159  Biso   1.000  O
  O50      1.0000 0.83180  0.53394  0.68162  Biso   1.000  O
  O51      1.0000 0.38931  0.09145  0.11369  Biso   1.000  O
  O52      1.0000 0.95724  0.53394  0.84927  Biso   1.000  O
  H13      1.0000 0.86455  0.96497  0.59628  Biso   1.000  H
  H14      1.0000 0.47689  0.82413  0.49436  Biso   1.000  H
  H15      1.0000 0.09518  0.44860  0.59628  Biso   1.000  H
  H16      1.0000 0.86455  0.44860  0.11265  Biso   1.000  H
  H17      1.0000 0.95828  0.05870  0.49212  Biso   1.000  H
  H18      1.0000 0.18838  0.82413  0.49436  Biso   1.000  H
  H19      1.0000 0.57881  0.96497  0.88202  Biso   1.000  H
  H20      1.0000 0.57881  0.73434  0.59628  Biso   1.000  H
  H21      1.0000 0.09518  0.73434  0.59628  Biso   1.000  H
  H22      1.0000 0.18891  0.34444  0.49212  Biso   1.000  H
  H23      1.0000 0.95828  0.34444  0.49212  Biso   1.000  H
  H24      1.0000 0.57881  0.73434  0.11265  Biso   1.000  H
  H25      1.0000 0.95828  0.34444  0.20638  Biso   1.000  H
  H26      1.0000 0.86455  0.44860  0.59628  Biso   1.000  H
  H27      1.0000 0.47689  0.34668  0.97181  Biso   1.000  H
  H28      1.0000 0.09912  0.44636  0.88255  Biso   1.000  H
  H29      1.0000 0.47689  0.34668  0.20585  Biso   1.000  H
  H30      1.0000 0.57657  0.96891  0.59404  Biso   1.000  H
  H31      1.0000 0.57881  0.44860  0.88202  Biso   1.000  H
  H32      1.0000 0.57881  0.44860  0.11265  Biso   1.000  H
  H33      1.0000 0.47689  0.82413  0.20585  Biso   1.000  H
  H34      1.0000 0.47689  0.05817  0.97181  Biso   1.000  H
  H35      1.0000 0.47689  0.05817  0.49436  Biso   1.000  H
  H36      1.0000 0.18891  0.34444  0.97575  Biso   1.000  H
