data_image0
_cell_length_a       18.2016
_cell_length_b       18.2016
_cell_length_c       18.2016
_cell_angle_alpha    60
_cell_angle_beta     60
_cell_angle_gamma    60

_symmetry_space_group_name_H-M    "P 1"
_symmetry_int_tables_number       1

loop_
  _symmetry_equiv_pos_as_xyz
  'x, y, z'

loop_
  _atom_site_label
  _atom_site_occupancy
  _atom_site_fract_x
  _atom_site_fract_y
  _atom_site_fract_z
  _atom_site_thermal_displace_type
  _atom_site_B_iso_or_equiv
  _atom_site_type_symbol
  C1       1.0000 0.54338  0.36986  0.54338  Biso   1.000  C
  C2       1.0000 0.36986  0.54338  0.54338  Biso   1.000  C
  C3       1.0000 0.54338  0.54338  0.54338  Biso   1.000  C
  C4       1.0000 0.54338  0.54338  0.36986  Biso   1.000  C
  C5       1.0000 0.13029  0.95657  0.95657  Biso   1.000  C
  C6       1.0000 0.95657  0.13029  0.95657  Biso   1.000  C
  C7       1.0000 0.95657  0.95657  0.13029  Biso   1.000  C
  C8       1.0000 0.95657  0.95657  0.95657  Biso   1.000  C
  C9       1.0000 0.31480  0.09680  0.79420  Biso   1.000  C
  C10      1.0000 0.09680  0.31480  0.79420  Biso   1.000  C
  C11      1.0000 0.79420  0.79420  0.31480  Biso   1.000  C
  C12      1.0000 0.79420  0.79420  0.09680  Biso   1.000  C
  C13      1.0000 0.31480  0.79420  0.79420  Biso   1.000  C
  C14      1.0000 0.09680  0.79420  0.79420  Biso   1.000  C
  C15      1.0000 0.79420  0.31480  0.09680  Biso   1.000  C
  C16      1.0000 0.79420  0.09680  0.31480  Biso   1.000  C
  C17      1.0000 0.31480  0.79420  0.09680  Biso   1.000  C
  C18      1.0000 0.09680  0.79420  0.31480  Biso   1.000  C
  C19      1.0000 0.79420  0.09680  0.79420  Biso   1.000  C
  C20      1.0000 0.79420  0.31480  0.79420  Biso   1.000  C
  C21      1.0000 0.33050  0.21250  0.72850  Biso   1.000  C
  C22      1.0000 0.28810  0.15890  0.77650  Biso   1.000  C
  C23      1.0000 0.21250  0.33050  0.72850  Biso   1.000  C
  C24      1.0000 0.15890  0.28810  0.77650  Biso   1.000  C
  C25      1.0000 0.72850  0.72850  0.33050  Biso   1.000  C
  C26      1.0000 0.77650  0.77650  0.28810  Biso   1.000  C
  C27      1.0000 0.72850  0.72850  0.21250  Biso   1.000  C
  C28      1.0000 0.77650  0.77650  0.15890  Biso   1.000  C
  C29      1.0000 0.33050  0.72850  0.72850  Biso   1.000  C
  C30      1.0000 0.28810  0.77650  0.77650  Biso   1.000  C
  C31      1.0000 0.21250  0.72850  0.72850  Biso   1.000  C
  C32      1.0000 0.15890  0.77650  0.77650  Biso   1.000  C
  C33      1.0000 0.72850  0.33050  0.21250  Biso   1.000  C
  C34      1.0000 0.77650  0.28810  0.15890  Biso   1.000  C
  C35      1.0000 0.72850  0.21250  0.33050  Biso   1.000  C
  C36      1.0000 0.77650  0.15890  0.28810  Biso   1.000  C
  C37      1.0000 0.33050  0.72850  0.21250  Biso   1.000  C
  C38      1.0000 0.28810  0.77650  0.15890  Biso   1.000  C
  C39      1.0000 0.21250  0.72850  0.33050  Biso   1.000  C
  C40      1.0000 0.15890  0.77650  0.28810  Biso   1.000  C
  C41      1.0000 0.72850  0.21250  0.72850  Biso   1.000  C
  C42      1.0000 0.77650  0.15890  0.77650  Biso   1.000  C
  C43      1.0000 0.72850  0.33050  0.72850  Biso   1.000  C
  C44      1.0000 0.77650  0.28810  0.77650  Biso   1.000  C
  C45      1.0000 0.30490  0.30490  0.69510  Biso   1.000  C
  C46      1.0000 0.20070  0.20070  0.79930  Biso   1.000  C
  C47      1.0000 0.13930  0.13930  0.86070  Biso   1.000  C
  C48      1.0000 0.36170  0.36170  0.63830  Biso   1.000  C
  C49      1.0000 0.69510  0.69510  0.30490  Biso   1.000  C
  C50      1.0000 0.79930  0.79930  0.20070  Biso   1.000  C
  C51      1.0000 0.86070  0.86070  0.13930  Biso   1.000  C
  C52      1.0000 0.63830  0.63830  0.36170  Biso   1.000  C
  C53      1.0000 0.30490  0.69510  0.69510  Biso   1.000  C
  C54      1.0000 0.20070  0.79930  0.79930  Biso   1.000  C
  C55      1.0000 0.13930  0.86070  0.86070  Biso   1.000  C
  C56      1.0000 0.36170  0.63830  0.63830  Biso   1.000  C
  C57      1.0000 0.69510  0.30490  0.30490  Biso   1.000  C
  C58      1.0000 0.79930  0.20070  0.20070  Biso   1.000  C
  C59      1.0000 0.86070  0.13930  0.13930  Biso   1.000  C
  C60      1.0000 0.63830  0.36170  0.36170  Biso   1.000  C
  C61      1.0000 0.30490  0.69510  0.30490  Biso   1.000  C
  C62      1.0000 0.20070  0.79930  0.20070  Biso   1.000  C
  C63      1.0000 0.13930  0.86070  0.13930  Biso   1.000  C
  C64      1.0000 0.36170  0.63830  0.36170  Biso   1.000  C
  C65      1.0000 0.69510  0.30490  0.69510  Biso   1.000  C
  C66      1.0000 0.79930  0.20070  0.79930  Biso   1.000  C
  C67      1.0000 0.86070  0.13930  0.86070  Biso   1.000  C
  C68      1.0000 0.63830  0.36170  0.63830  Biso   1.000  C
  C69      1.0000 0.17850  0.05170  0.88490  Biso   1.000  C
  C70      1.0000 0.44150  0.32470  0.61690  Biso   1.000  C
  C71      1.0000 0.05170  0.17850  0.88490  Biso   1.000  C
  C72      1.0000 0.32470  0.44150  0.61690  Biso   1.000  C
  C73      1.0000 0.88490  0.88490  0.17850  Biso   1.000  C
  C74      1.0000 0.61690  0.61690  0.44150  Biso   1.000  C
  C75      1.0000 0.88490  0.88490  0.05170  Biso   1.000  C
  C76      1.0000 0.61690  0.61690  0.32470  Biso   1.000  C
  C77      1.0000 0.17850  0.88490  0.88490  Biso   1.000  C
  C78      1.0000 0.44150  0.61690  0.61690  Biso   1.000  C
  C79      1.0000 0.05170  0.88490  0.88490  Biso   1.000  C
  C80      1.0000 0.32470  0.61690  0.61690  Biso   1.000  C
  C81      1.0000 0.88490  0.17850  0.05170  Biso   1.000  C
  C82      1.0000 0.61690  0.44150  0.32470  Biso   1.000  C
  C83      1.0000 0.88490  0.05170  0.17850  Biso   1.000  C
  C84      1.0000 0.61690  0.32470  0.44150  Biso   1.000  C
  C85      1.0000 0.17850  0.88490  0.05170  Biso   1.000  C
  C86      1.0000 0.44150  0.61690  0.32470  Biso   1.000  C
  C87      1.0000 0.05170  0.88490  0.17850  Biso   1.000  C
  C88      1.0000 0.32470  0.61690  0.44150  Biso   1.000  C
  C89      1.0000 0.88490  0.05170  0.88490  Biso   1.000  C
  C90      1.0000 0.61690  0.32470  0.61690  Biso   1.000  C
  C91      1.0000 0.88490  0.17850  0.88490  Biso   1.000  C
  C92      1.0000 0.61690  0.44150  0.61690  Biso   1.000  C
  C93      1.0000 0.00000  0.00000  0.00000  Biso   1.000  C
  C94      1.0000 0.50000  0.50000  0.50000  Biso   1.000  C
  O1       1.0000 0.33477  0.31617  1.00000  Biso   1.000  O
  O2       1.0000 0.33477  0.31617  0.17360  Biso   1.000  O
  O3       1.0000 0.16118  0.31617  0.17360  Biso   1.000  O
  O4       1.0000 0.33477  0.14257  0.17360  Biso   1.000  O
  O5       1.0000 0.75121  0.73262  0.76365  Biso   1.000  O
  O6       1.0000 0.75121  0.73262  0.59005  Biso   1.000  O
  O7       1.0000 0.75121  0.90622  0.59005  Biso   1.000  O
  O8       1.0000 0.92480  0.73262  0.59005  Biso   1.000  O
  O9       1.0000 0.19788  0.47693  0.81536  Biso   1.000  O
  O10      1.0000 0.49553  0.17928  0.33436  Biso   1.000  O
  O11      1.0000 0.97652  0.47693  0.03671  Biso   1.000  O
  O12      1.0000 0.49553  0.95793  0.33436  Biso   1.000  O
  O13      1.0000 0.19788  0.95793  0.33436  Biso   1.000  O
  O14      1.0000 0.49553  0.47693  0.81536  Biso   1.000  O
  O15      1.0000 0.97652  0.17928  0.33436  Biso   1.000  O
  O16      1.0000 0.49553  0.47693  0.03671  Biso   1.000  O
  O17      1.0000 0.19788  0.47693  0.33436  Biso   1.000  O
  O18      1.0000 0.49553  0.95793  0.03671  Biso   1.000  O
  O19      1.0000 0.97652  0.47693  0.33436  Biso   1.000  O
  O20      1.0000 0.49553  0.17928  0.81536  Biso   1.000  O
  O21      1.0000 0.59045  0.86951  0.94829  Biso   1.000  O
  O22      1.0000 0.88810  0.57185  0.42928  Biso   1.000  O
  O23      1.0000 0.59045  0.09086  0.72693  Biso   1.000  O
  O24      1.0000 0.10945  0.57185  0.42928  Biso   1.000  O
  O25      1.0000 0.10945  0.86951  0.42928  Biso   1.000  O
  O26      1.0000 0.59045  0.57185  0.94829  Biso   1.000  O
  O27      1.0000 0.88810  0.09086  0.42928  Biso   1.000  O
  O28      1.0000 0.59045  0.57185  0.72693  Biso   1.000  O
  O29      1.0000 0.59045  0.86951  0.42928  Biso   1.000  O
  O30      1.0000 0.10945  0.57185  0.72693  Biso   1.000  O
  O31      1.0000 0.59045  0.09086  0.42928  Biso   1.000  O
  O32      1.0000 0.88810  0.57185  0.94829  Biso   1.000  O
  O33      1.0000 0.13450  0.49529  0.84203  Biso   1.000  O
  O34      1.0000 0.51388  0.11590  0.35271  Biso   1.000  O
  O35      1.0000 0.00320  0.49528  0.97333  Biso   1.000  O
  O36      1.0000 0.51388  0.98460  0.35271  Biso   1.000  O
  O37      1.0000 0.13450  0.98460  0.35271  Biso   1.000  O
  O38      1.0000 0.51388  0.49529  0.84203  Biso   1.000  O
  O39      1.0000 0.00320  0.11590  0.35271  Biso   1.000  O
  O40      1.0000 0.51388  0.49528  0.97333  Biso   1.000  O
  O41      1.0000 0.13450  0.49529  0.35271  Biso   1.000  O
  O42      1.0000 0.51388  0.98460  0.97333  Biso   1.000  O
  O43      1.0000 0.00320  0.49529  0.35271  Biso   1.000  O
  O44      1.0000 0.51388  0.11590  0.84203  Biso   1.000  O
  O45      1.0000 0.57210  0.93288  0.92161  Biso   1.000  O
  O46      1.0000 0.95148  0.55350  0.41093  Biso   1.000  O
  O47      1.0000 0.57210  0.06418  0.79031  Biso   1.000  O
  O48      1.0000 0.08278  0.55350  0.41093  Biso   1.000  O
  O49      1.0000 0.08278  0.93288  0.41093  Biso   1.000  O
  O50      1.0000 0.57210  0.55350  0.92161  Biso   1.000  O
  O51      1.0000 0.95148  0.06418  0.41093  Biso   1.000  O
  O52      1.0000 0.57210  0.55350  0.79031  Biso   1.000  O
  O53      1.0000 0.57210  0.93288  0.41093  Biso   1.000  O
  O54      1.0000 0.08278  0.55350  0.79031  Biso   1.000  O
  O55      1.0000 0.57210  0.06418  0.41093  Biso   1.000  O
  O56      1.0000 0.95148  0.55350  0.92161  Biso   1.000  O
  O57      1.0000 0.09584  0.46829  0.93468  Biso   1.000  O
  O58      1.0000 0.15386  0.41027  0.99270  Biso   1.000  O
  O59      1.0000 0.48689  0.07725  0.32572  Biso   1.000  O
  O60      1.0000 0.42887  0.13527  0.26770  Biso   1.000  O
  O61      1.0000 0.09584  0.07725  0.32572  Biso   1.000  O
  O62      1.0000 0.15386  0.13527  0.26770  Biso   1.000  O
  O63      1.0000 0.48689  0.46829  0.93468  Biso   1.000  O
  O64      1.0000 0.42887  0.41027  0.99270  Biso   1.000  O
  O65      1.0000 0.09584  0.46829  0.32572  Biso   1.000  O
  O66      1.0000 0.15386  0.41027  0.26770  Biso   1.000  O
  O67      1.0000 0.48689  0.07725  0.93468  Biso   1.000  O
  O68      1.0000 0.42887  0.13527  0.99270  Biso   1.000  O
  O69      1.0000 0.59909  0.97154  0.82897  Biso   1.000  O
  O70      1.0000 0.65711  0.91352  0.77095  Biso   1.000  O
  O71      1.0000 0.99013  0.58049  0.43792  Biso   1.000  O
  O72      1.0000 0.93211  0.63852  0.49594  Biso   1.000  O
  O73      1.0000 0.99013  0.97154  0.43792  Biso   1.000  O
  O74      1.0000 0.93211  0.91352  0.49594  Biso   1.000  O
  O75      1.0000 0.59909  0.58049  0.82897  Biso   1.000  O
  O76      1.0000 0.65711  0.63852  0.77095  Biso   1.000  O
  O77      1.0000 0.59909  0.97154  0.43792  Biso   1.000  O
  O78      1.0000 0.65711  0.91352  0.49594  Biso   1.000  O
  O79      1.0000 0.99013  0.58049  0.82897  Biso   1.000  O
  O80      1.0000 0.93211  0.63852  0.77095  Biso   1.000  O
  O81      1.0000 0.29136  0.27277  0.13020  Biso   1.000  O
  O82      1.0000 0.79461  0.77602  0.63345  Biso   1.000  O
  O83      1.0000 0.23979  0.38836  0.95058  Biso   1.000  O
  O84      1.0000 0.40696  0.22120  0.24579  Biso   1.000  O
  O85      1.0000 0.11175  0.38836  0.07863  Biso   1.000  O
  O86      1.0000 0.40696  0.09315  0.24579  Biso   1.000  O
  O87      1.0000 0.23979  0.09315  0.24579  Biso   1.000  O
  O88      1.0000 0.40696  0.38836  0.95058  Biso   1.000  O
  O89      1.0000 0.11175  0.22120  0.24579  Biso   1.000  O
  O90      1.0000 0.40696  0.38836  0.07863  Biso   1.000  O
  O91      1.0000 0.23979  0.38836  0.24579  Biso   1.000  O
  O92      1.0000 0.40696  0.09315  0.07863  Biso   1.000  O
  O93      1.0000 0.11175  0.38836  0.24579  Biso   1.000  O
  O94      1.0000 0.40696  0.22120  0.95058  Biso   1.000  O
  O95      1.0000 0.67902  0.82759  0.81306  Biso   1.000  O
  O96      1.0000 0.84618  0.66042  0.51785  Biso   1.000  O
  O97      1.0000 0.67902  0.95563  0.68502  Biso   1.000  O
  O98      1.0000 0.97423  0.66042  0.51785  Biso   1.000  O
  O99      1.0000 0.97423  0.82759  0.51785  Biso   1.000  O
  O100     1.0000 0.67902  0.66042  0.81306  Biso   1.000  O
  O101     1.0000 0.84618  0.95563  0.51785  Biso   1.000  O
  O102     1.0000 0.67902  0.66042  0.68502  Biso   1.000  O
  O103     1.0000 0.67902  0.82759  0.51785  Biso   1.000  O
  O104     1.0000 0.97423  0.66042  0.68502  Biso   1.000  O
  O105     1.0000 0.67902  0.95563  0.51785  Biso   1.000  O
  O106     1.0000 0.84618  0.66042  0.81306  Biso   1.000  O
