data_image0
_cell_length_a       18.0897
_cell_length_b       18.0897
_cell_length_c       18.0897
_cell_angle_alpha    60
_cell_angle_beta     60
_cell_angle_gamma    60

loop_
  _atom_site_label
  _atom_site_occupancy
  _atom_site_fract_x
  _atom_site_fract_y
  _atom_site_fract_z
  _atom_site_thermal_displace_type
  _atom_site_B_iso_or_equiv
  _atom_site_type_symbol
  C1       1.0000 0.38110  0.20630  0.20630  Biso   1.000  C
  C2       1.0000 0.20630  0.38110  0.20630  Biso   1.000  C
  C3       1.0000 0.20630  0.20630  0.38110  Biso   1.000  C
  C4       1.0000 0.20630  0.20630  0.20630  Biso   1.000  C
  C5       1.0000 0.79370  0.61890  0.79370  Biso   1.000  C
  C6       1.0000 0.61890  0.79370  0.79370  Biso   1.000  C
  C7       1.0000 0.79370  0.79370  0.61890  Biso   1.000  C
  C8       1.0000 0.79370  0.79370  0.79370  Biso   1.000  C
  C9       1.0000 0.35200  0.04240  0.56320  Biso   1.000  C
  C10      1.0000 0.04240  0.35200  0.04240  Biso   1.000  C
  C11      1.0000 0.56320  0.04240  0.35200  Biso   1.000  C
  C12      1.0000 0.04240  0.56320  0.04240  Biso   1.000  C
  C13      1.0000 0.35200  0.56320  0.04240  Biso   1.000  C
  C14      1.0000 0.04240  0.04240  0.56320  Biso   1.000  C
  C15      1.0000 0.56320  0.35200  0.04240  Biso   1.000  C
  C16      1.0000 0.04240  0.04240  0.35200  Biso   1.000  C
  C17      1.0000 0.35200  0.04240  0.04240  Biso   1.000  C
  C18      1.0000 0.04240  0.56320  0.35200  Biso   1.000  C
  C19      1.0000 0.56320  0.04240  0.04240  Biso   1.000  C
  C20      1.0000 0.04240  0.35200  0.56320  Biso   1.000  C
  C21      1.0000 0.95760  0.64800  0.43680  Biso   1.000  C
  C22      1.0000 0.64800  0.95760  0.95760  Biso   1.000  C
  C23      1.0000 0.95760  0.43680  0.64800  Biso   1.000  C
  C24      1.0000 0.43680  0.95760  0.95760  Biso   1.000  C
  C25      1.0000 0.43680  0.64800  0.95760  Biso   1.000  C
  C26      1.0000 0.95760  0.95760  0.43680  Biso   1.000  C
  C27      1.0000 0.64800  0.43680  0.95760  Biso   1.000  C
  C28      1.0000 0.95760  0.95760  0.64800  Biso   1.000  C
  C29      1.0000 0.95760  0.64800  0.95760  Biso   1.000  C
  C30      1.0000 0.43680  0.95760  0.64800  Biso   1.000  C
  C31      1.0000 0.95760  0.43680  0.95760  Biso   1.000  C
  C32      1.0000 0.64800  0.95760  0.43680  Biso   1.000  C
  C33      1.0000 0.41430  0.02590  0.53390  Biso   1.000  C
  C34      1.0000 0.02590  0.41430  0.02590  Biso   1.000  C
  C35      1.0000 0.53390  0.02590  0.41430  Biso   1.000  C
  C36      1.0000 0.02590  0.53390  0.02590  Biso   1.000  C
  C37      1.0000 0.41430  0.53390  0.02590  Biso   1.000  C
  C38      1.0000 0.02590  0.02590  0.53390  Biso   1.000  C
  C39      1.0000 0.53390  0.41430  0.02590  Biso   1.000  C
  C40      1.0000 0.02590  0.02590  0.41430  Biso   1.000  C
  C41      1.0000 0.41430  0.02590  0.02590  Biso   1.000  C
  C42      1.0000 0.02590  0.53390  0.41430  Biso   1.000  C
  C43      1.0000 0.53390  0.02590  0.02590  Biso   1.000  C
  C44      1.0000 0.02590  0.41430  0.53390  Biso   1.000  C
  C45      1.0000 0.97410  0.58570  0.46610  Biso   1.000  C
  C46      1.0000 0.58570  0.97410  0.97410  Biso   1.000  C
  C47      1.0000 0.97410  0.46610  0.58570  Biso   1.000  C
  C48      1.0000 0.46610  0.97410  0.97410  Biso   1.000  C
  C49      1.0000 0.46610  0.58570  0.97410  Biso   1.000  C
  C50      1.0000 0.97410  0.97410  0.46610  Biso   1.000  C
  C51      1.0000 0.58570  0.46610  0.97410  Biso   1.000  C
  C52      1.0000 0.97410  0.97410  0.58570  Biso   1.000  C
  C53      1.0000 0.97410  0.58570  0.97410  Biso   1.000  C
  C54      1.0000 0.46610  0.97410  0.58570  Biso   1.000  C
  C55      1.0000 0.97410  0.46610  0.97410  Biso   1.000  C
  C56      1.0000 0.58570  0.97410  0.46610  Biso   1.000  C
  C57      1.0000 0.38580  0.11420  0.38580  Biso   1.000  C
  C58      1.0000 0.44340  0.05660  0.44340  Biso   1.000  C
  C59      1.0000 0.11420  0.38580  0.11420  Biso   1.000  C
  C60      1.0000 0.05660  0.44340  0.05660  Biso   1.000  C
  C61      1.0000 0.38580  0.38580  0.11420  Biso   1.000  C
  C62      1.0000 0.44340  0.44340  0.05660  Biso   1.000  C
  C63      1.0000 0.11420  0.11420  0.38580  Biso   1.000  C
  C64      1.0000 0.05660  0.05660  0.44340  Biso   1.000  C
  C65      1.0000 0.38580  0.11420  0.11420  Biso   1.000  C
  C66      1.0000 0.44340  0.05660  0.05660  Biso   1.000  C
  C67      1.0000 0.11420  0.38580  0.38580  Biso   1.000  C
  C68      1.0000 0.05660  0.44340  0.44340  Biso   1.000  C
  C69      1.0000 0.88580  0.61420  0.61420  Biso   1.000  C
  C70      1.0000 0.94340  0.55660  0.55660  Biso   1.000  C
  C71      1.0000 0.61420  0.88580  0.88580  Biso   1.000  C
  C72      1.0000 0.55660  0.94340  0.94340  Biso   1.000  C
  C73      1.0000 0.61420  0.61420  0.88580  Biso   1.000  C
  C74      1.0000 0.55660  0.55660  0.94340  Biso   1.000  C
  C75      1.0000 0.88580  0.88580  0.61420  Biso   1.000  C
  C76      1.0000 0.94340  0.94340  0.55660  Biso   1.000  C
  C77      1.0000 0.88580  0.61420  0.88580  Biso   1.000  C
  C78      1.0000 0.94340  0.55660  0.94340  Biso   1.000  C
  C79      1.0000 0.61420  0.88580  0.61420  Biso   1.000  C
  C80      1.0000 0.55660  0.94340  0.55660  Biso   1.000  C
  C81      1.0000 0.25000  0.25000  0.25000  Biso   1.000  C
  C82      1.0000 0.75000  0.75000  0.75000  Biso   1.000  C
  C83      1.0000 0.42610  0.13570  0.30250  Biso   1.000  C
  C84      1.0000 0.13570  0.42610  0.13570  Biso   1.000  C
  C85      1.0000 0.30250  0.13570  0.42610  Biso   1.000  C
  C86      1.0000 0.13570  0.30250  0.13570  Biso   1.000  C
  C87      1.0000 0.42610  0.30250  0.13570  Biso   1.000  C
  C88      1.0000 0.13570  0.13570  0.30250  Biso   1.000  C
  C89      1.0000 0.30250  0.42610  0.13570  Biso   1.000  C
  C90      1.0000 0.13570  0.13570  0.42610  Biso   1.000  C
  C91      1.0000 0.42610  0.13570  0.13570  Biso   1.000  C
  C92      1.0000 0.13570  0.30250  0.42610  Biso   1.000  C
  C93      1.0000 0.30250  0.13570  0.13570  Biso   1.000  C
  C94      1.0000 0.13570  0.42610  0.30250  Biso   1.000  C
  C95      1.0000 0.86430  0.57390  0.69750  Biso   1.000  C
  C96      1.0000 0.57390  0.86430  0.86430  Biso   1.000  C
  C97      1.0000 0.86430  0.69750  0.57390  Biso   1.000  C
  C98      1.0000 0.69750  0.86430  0.86430  Biso   1.000  C
  C99      1.0000 0.69750  0.57390  0.86430  Biso   1.000  C
  C100     1.0000 0.86430  0.86430  0.69750  Biso   1.000  C
  C101     1.0000 0.57390  0.69750  0.86430  Biso   1.000  C
  C102     1.0000 0.86430  0.86430  0.57390  Biso   1.000  C
  C103     1.0000 0.86430  0.57390  0.86430  Biso   1.000  C
  C104     1.0000 0.69750  0.86430  0.57390  Biso   1.000  C
  C105     1.0000 0.86430  0.69750  0.86430  Biso   1.000  C
  C106     1.0000 0.57390  0.86430  0.69750  Biso   1.000  C
  O1       1.0000 0.43215  0.54597  0.47551  Biso   1.000  O
  O2       1.0000 0.60659  0.54593  0.30106  Biso   1.000  O
  O3       1.0000 0.60664  0.37148  0.47551  Biso   1.000  O
  O4       1.0000 0.60659  0.54592  0.47556  Biso   1.000  O
  O5       1.0000 0.19050  0.96201  0.88497  Biso   1.000  O
  O6       1.0000 0.01605  0.96206  0.05942  Biso   1.000  O
  O7       1.0000 0.01600  0.13650  0.88497  Biso   1.000  O
  O8       1.0000 0.01605  0.96206  0.88492  Biso   1.000  O
  O9       1.0000 0.27207  0.72761  0.27327  Biso   1.000  O
  O10      1.0000 0.27105  0.34350  0.64972  Biso   1.000  O
  O11      1.0000 0.27226  0.72824  0.64871  Biso   1.000  O
  O12      1.0000 0.40435  0.72660  0.14099  Biso   1.000  O
  O13      1.0000 0.78081  0.72863  0.13997  Biso   1.000  O
  O14      1.0000 0.77980  0.34369  0.14118  Biso   1.000  O
  O15      1.0000 0.78160  0.21808  0.64951  Biso   1.000  O
  O16      1.0000 0.40413  0.21706  0.65153  Biso   1.000  O
  O17      1.0000 0.78222  0.21826  0.27326  Biso   1.000  O
  O18      1.0000 0.78059  0.34371  0.65051  Biso   1.000  O
  O19      1.0000 0.78262  0.72681  0.27305  Biso   1.000  O
  O20      1.0000 0.40434  0.72582  0.65113  Biso   1.000  O
  O21      1.0000 0.35057  0.78038  0.08721  Biso   1.000  O
  O22      1.0000 0.35159  0.16451  0.70408  Biso   1.000  O
  O23      1.0000 0.35038  0.77977  0.70508  Biso   1.000  O
  O24      1.0000 0.21830  0.78138  0.21949  Biso   1.000  O
  O25      1.0000 0.83517  0.77936  0.22051  Biso   1.000  O
  O26      1.0000 0.83617  0.16430  0.21930  Biso   1.000  O
  O27      1.0000 0.83437  0.29658  0.70429  Biso   1.000  O
  O28      1.0000 0.21850  0.29759  0.70227  Biso   1.000  O
  O29      1.0000 0.83376  0.29638  0.08722  Biso   1.000  O
  O30      1.0000 0.83537  0.16430  0.70328  Biso   1.000  O
  O31      1.0000 0.83335  0.78117  0.08742  Biso   1.000  O
  O32      1.0000 0.21830  0.78219  0.70267  Biso   1.000  O
  O33      1.0000 0.36548  0.69983  0.23440  Biso   1.000  O
  O34      1.0000 0.42455  0.64076  0.29347  Biso   1.000  O
  O35      1.0000 0.75382  0.30484  0.62274  Biso   1.000  O
  O36      1.0000 0.70143  0.36389  0.57035  Biso   1.000  O
  O37      1.0000 0.25716  0.80815  0.12608  Biso   1.000  O
  O38      1.0000 0.19809  0.86722  0.06701  Biso   1.000  O
  O39      1.0000 0.86214  0.20317  0.73106  Biso   1.000  O
  O40      1.0000 0.92121  0.14410  0.79013  Biso   1.000  O
  O41      1.0000 0.36528  0.70005  0.62294  Biso   1.000  O
  O42      1.0000 0.42407  0.64124  0.57083  Biso   1.000  O
  O43      1.0000 0.75403  0.31127  0.23420  Biso   1.000  O
  O44      1.0000 0.70191  0.36341  0.29299  Biso   1.000  O
  O45      1.0000 0.25736  0.80796  0.73086  Biso   1.000  O
  O46      1.0000 0.19857  0.86675  0.78965  Biso   1.000  O
  O47      1.0000 0.86194  0.20336  0.12628  Biso   1.000  O
  O48      1.0000 0.92073  0.14457  0.06749  Biso   1.000  O
  O49      1.0000 0.36508  0.31108  0.62314  Biso   1.000  O
  O50      1.0000 0.42387  0.36321  0.57103  Biso   1.000  O
  O51      1.0000 0.75423  0.70024  0.23400  Biso   1.000  O
  O52      1.0000 0.70211  0.64145  0.29279  Biso   1.000  O
  O53      1.0000 0.25756  0.20357  0.73065  Biso   1.000  O
  O54      1.0000 0.19877  0.14478  0.78944  Biso   1.000  O
  O55      1.0000 0.86174  0.80775  0.12648  Biso   1.000  O
  O56      1.0000 0.92053  0.86654  0.06769  Biso   1.000  O
  O57      1.0000 0.38364  0.61801  0.37827  Biso   1.000  O
  O58      1.0000 0.38415  0.61996  0.54760  Biso   1.000  O
  O59      1.0000 0.38328  0.44911  0.54796  Biso   1.000  O
  O60      1.0000 0.50936  0.61962  0.25256  Biso   1.000  O
  O61      1.0000 0.67868  0.44785  0.25306  Biso   1.000  O
  O62      1.0000 0.67904  0.61920  0.25220  Biso   1.000  O
  O63      1.0000 0.67868  0.32298  0.54921  Biso   1.000  O
  O64      1.0000 0.68063  0.32349  0.37743  Biso   1.000  O
  O65      1.0000 0.50978  0.32262  0.54879  Biso   1.000  O
  O66      1.0000 0.68029  0.44869  0.54760  Biso   1.000  O
  O67      1.0000 0.50851  0.61801  0.54955  Biso   1.000  O
  O68      1.0000 0.67987  0.61837  0.37870  Biso   1.000  O
  O69      1.0000 0.23900  0.88998  0.98220  Biso   1.000  O
  O70      1.0000 0.23850  0.88803  0.81288  Biso   1.000  O
  O71      1.0000 0.23936  0.05887  0.81252  Biso   1.000  O
  O72      1.0000 0.11329  0.88836  0.10792  Biso   1.000  O
  O73      1.0000 0.94397  0.06014  0.10742  Biso   1.000  O
  O74      1.0000 0.94360  0.88878  0.10828  Biso   1.000  O
  O75      1.0000 0.94396  0.18501  0.81127  Biso   1.000  O
  O76      1.0000 0.94201  0.18450  0.98305  Biso   1.000  O
  O77      1.0000 0.11286  0.18537  0.81169  Biso   1.000  O
  O78      1.0000 0.94235  0.05930  0.81288  Biso   1.000  O
  O79      1.0000 0.11413  0.88998  0.81093  Biso   1.000  O
  O80      1.0000 0.94278  0.88961  0.98178  Biso   1.000  O
  O81      1.0000 0.56299  0.50233  0.43191  Biso   1.000  O
  O82      1.0000 0.05965  0.00566  0.92857  Biso   1.000  O
  O83      1.0000 0.23866  0.42061  0.62661  Biso   1.000  O
  O84      1.0000 0.48125  0.18467  0.62992  Biso   1.000  O
  O85      1.0000 0.38398  0.08740  0.72718  Biso   1.000  O
  O86      1.0000 0.14139  0.32334  0.72388  Biso   1.000  O
  O87      1.0000 0.76086  0.18586  0.35036  Biso   1.000  O
  O88      1.0000 0.85953  0.08720  0.25169  Biso   1.000  O
  O89      1.0000 0.23987  0.70689  0.62536  Biso   1.000  O
  O90      1.0000 0.14120  0.80554  0.72402  Biso   1.000  O
  O91      1.0000 0.48146  0.70383  0.10858  Biso   1.000  O
  O92      1.0000 0.75770  0.70702  0.10758  Biso   1.000  O
  O93      1.0000 0.85814  0.08719  0.72522  Biso   1.000  O
  O94      1.0000 0.85497  0.80428  0.01031  Biso   1.000  O
  O95      1.0000 0.75644  0.42079  0.10878  Biso   1.000  O
  O96      1.0000 0.85511  0.32213  0.01012  Biso   1.000  O
  O97      1.0000 0.48144  0.70247  0.62977  Biso   1.000  O
  O98      1.0000 0.38277  0.80112  0.72844  Biso   1.000  O
  O99      1.0000 0.85630  0.32233  0.72706  Biso   1.000  O
  O100     1.0000 0.76101  0.70371  0.35017  Biso   1.000  O
  O101     1.0000 0.85827  0.80097  0.25290  Biso   1.000  O
  O102     1.0000 0.75782  0.42082  0.62858  Biso   1.000  O
  O103     1.0000 0.14119  0.80415  0.25189  Biso   1.000  O
  O104     1.0000 0.23967  0.70567  0.35038  Biso   1.000  O
  O105     1.0000 0.38298  0.80232  0.01010  Biso   1.000  O
  O106     1.0000 0.75966  0.18568  0.62673  Biso   1.000  O
