data_image0
_cell_length_a       18.283
_cell_length_b       18.283
_cell_length_c       18.283
_cell_angle_alpha    60
_cell_angle_beta     60
_cell_angle_gamma    60

_symmetry_space_group_name_H-M    "P 1"
_symmetry_int_tables_number       1

loop_
  _symmetry_equiv_pos_as_xyz
  'x, y, z'

loop_
  _atom_site_label
  _atom_site_occupancy
  _atom_site_fract_x
  _atom_site_fract_y
  _atom_site_fract_z
  _atom_site_thermal_displace_type
  _atom_site_B_iso_or_equiv
  _atom_site_type_symbol
  Zn1      1.0000 0.20670  0.37990  0.20670  Biso   1.000  Zn
  Zn2      1.0000 0.37990  0.20670  0.20670  Biso   1.000  Zn
  Zn3      1.0000 0.20670  0.20670  0.20670  Biso   1.000  Zn
  Zn4      1.0000 0.20670  0.20670  0.37990  Biso   1.000  Zn
  Zn5      1.0000 0.62010  0.79330  0.79330  Biso   1.000  Zn
  Zn6      1.0000 0.79330  0.62010  0.79330  Biso   1.000  Zn
  Zn7      1.0000 0.79330  0.79330  0.79330  Biso   1.000  Zn
  Zn8      1.0000 0.79330  0.79330  0.62010  Biso   1.000  Zn
  H1       1.0000 0.04940  0.56380  0.04940  Biso   1.000  H
  H2       1.0000 0.56380  0.04940  0.33740  Biso   1.000  H
  H3       1.0000 0.04940  0.33740  0.04940  Biso   1.000  H
  H4       1.0000 0.33740  0.04940  0.56380  Biso   1.000  H
  H5       1.0000 0.04940  0.04940  0.33740  Biso   1.000  H
  H6       1.0000 0.56380  0.33740  0.04940  Biso   1.000  H
  H7       1.0000 0.04940  0.04940  0.56380  Biso   1.000  H
  H8       1.0000 0.33740  0.56380  0.04940  Biso   1.000  H
  H9       1.0000 0.04940  0.33740  0.56380  Biso   1.000  H
  H10      1.0000 0.56380  0.04940  0.04940  Biso   1.000  H
  H11      1.0000 0.04940  0.56380  0.33740  Biso   1.000  H
  H12      1.0000 0.33740  0.04940  0.04940  Biso   1.000  H
  H13      1.0000 0.43620  0.95060  0.95060  Biso   1.000  H
  H14      1.0000 0.95060  0.43620  0.66260  Biso   1.000  H
  H15      1.0000 0.66260  0.95060  0.95060  Biso   1.000  H
  H16      1.0000 0.95060  0.66260  0.43620  Biso   1.000  H
  H17      1.0000 0.95060  0.95060  0.66260  Biso   1.000  H
  H18      1.0000 0.66260  0.43620  0.95060  Biso   1.000  H
  H19      1.0000 0.95060  0.95060  0.43620  Biso   1.000  H
  H20      1.0000 0.43620  0.66260  0.95060  Biso   1.000  H
  H21      1.0000 0.66260  0.95060  0.43620  Biso   1.000  H
  H22      1.0000 0.95060  0.43620  0.95060  Biso   1.000  H
  H23      1.0000 0.43620  0.95060  0.66260  Biso   1.000  H
  H24      1.0000 0.95060  0.66260  0.95060  Biso   1.000  H
  C1       1.0000 0.02700  0.53820  0.02700  Biso   1.000  C
  C2       1.0000 0.53820  0.02700  0.40780  Biso   1.000  C
  C3       1.0000 0.02700  0.40780  0.02700  Biso   1.000  C
  C4       1.0000 0.40780  0.02700  0.53820  Biso   1.000  C
  C5       1.0000 0.02700  0.02700  0.40780  Biso   1.000  C
  C6       1.0000 0.53820  0.40780  0.02700  Biso   1.000  C
  C7       1.0000 0.02700  0.02700  0.53820  Biso   1.000  C
  C8       1.0000 0.40780  0.53820  0.02700  Biso   1.000  C
  C9       1.0000 0.02700  0.40780  0.53820  Biso   1.000  C
  C10      1.0000 0.53820  0.02700  0.02700  Biso   1.000  C
  C11      1.0000 0.02700  0.53820  0.40780  Biso   1.000  C
  C12      1.0000 0.40780  0.02700  0.02700  Biso   1.000  C
  C13      1.0000 0.46180  0.97300  0.97300  Biso   1.000  C
  C14      1.0000 0.97300  0.46180  0.59220  Biso   1.000  C
  C15      1.0000 0.59220  0.97300  0.97300  Biso   1.000  C
  C16      1.0000 0.97300  0.59220  0.46180  Biso   1.000  C
  C17      1.0000 0.97300  0.97300  0.59220  Biso   1.000  C
  C18      1.0000 0.59220  0.46180  0.97300  Biso   1.000  C
  C19      1.0000 0.97300  0.97300  0.46180  Biso   1.000  C
  C20      1.0000 0.46180  0.59220  0.97300  Biso   1.000  C
  C21      1.0000 0.59220  0.97300  0.46180  Biso   1.000  C
  C22      1.0000 0.97300  0.46180  0.97300  Biso   1.000  C
  C23      1.0000 0.46180  0.97300  0.59220  Biso   1.000  C
  C24      1.0000 0.97300  0.59220  0.97300  Biso   1.000  C
  C25      1.0000 0.11070  0.38930  0.11070  Biso   1.000  C
  C26      1.0000 0.05420  0.44580  0.05420  Biso   1.000  C
  C27      1.0000 0.38930  0.11070  0.38930  Biso   1.000  C
  C28      1.0000 0.44580  0.05420  0.44580  Biso   1.000  C
  C29      1.0000 0.11070  0.11070  0.38930  Biso   1.000  C
  C30      1.0000 0.05420  0.05420  0.44580  Biso   1.000  C
  C31      1.0000 0.38930  0.38930  0.11070  Biso   1.000  C
  C32      1.0000 0.44580  0.44580  0.05420  Biso   1.000  C
  C33      1.0000 0.11070  0.38930  0.38930  Biso   1.000  C
  C34      1.0000 0.05420  0.44580  0.44580  Biso   1.000  C
  C35      1.0000 0.38930  0.11070  0.11070  Biso   1.000  C
  C36      1.0000 0.44580  0.05420  0.05420  Biso   1.000  C
  C37      1.0000 0.61070  0.88930  0.88930  Biso   1.000  C
  C38      1.0000 0.55420  0.94580  0.94580  Biso   1.000  C
  C39      1.0000 0.88930  0.61070  0.61070  Biso   1.000  C
  C40      1.0000 0.94580  0.55420  0.55420  Biso   1.000  C
  C41      1.0000 0.88930  0.88930  0.61070  Biso   1.000  C
  C42      1.0000 0.94580  0.94580  0.55420  Biso   1.000  C
  C43      1.0000 0.61070  0.61070  0.88930  Biso   1.000  C
  C44      1.0000 0.55420  0.55420  0.94580  Biso   1.000  C
  C45      1.0000 0.61070  0.88930  0.61070  Biso   1.000  C
  C46      1.0000 0.55420  0.94580  0.55420  Biso   1.000  C
  C47      1.0000 0.88930  0.61070  0.88930  Biso   1.000  C
  C48      1.0000 0.94580  0.55420  0.94580  Biso   1.000  C
  O1       1.0000 0.25000  0.25000  0.25000  Biso   1.000  O
  O2       1.0000 0.75000  0.75000  0.75000  Biso   1.000  O
  O3       1.0000 0.13430  0.42670  0.13430  Biso   1.000  O
  O4       1.0000 0.42670  0.13430  0.30470  Biso   1.000  O
  O5       1.0000 0.13430  0.30470  0.13430  Biso   1.000  O
  O6       1.0000 0.30470  0.13430  0.42670  Biso   1.000  O
  O7       1.0000 0.13430  0.13430  0.30470  Biso   1.000  O
  O8       1.0000 0.42670  0.30470  0.13430  Biso   1.000  O
  O9       1.0000 0.13430  0.13430  0.42670  Biso   1.000  O
  O10      1.0000 0.30470  0.42670  0.13430  Biso   1.000  O
  O11      1.0000 0.13430  0.30470  0.42670  Biso   1.000  O
  O12      1.0000 0.42670  0.13430  0.13430  Biso   1.000  O
  O13      1.0000 0.13430  0.42670  0.30470  Biso   1.000  O
  O14      1.0000 0.30470  0.13430  0.13430  Biso   1.000  O
  O15      1.0000 0.57330  0.86570  0.86570  Biso   1.000  O
  O16      1.0000 0.86570  0.57330  0.69530  Biso   1.000  O
  O17      1.0000 0.69530  0.86570  0.86570  Biso   1.000  O
  O18      1.0000 0.86570  0.69530  0.57330  Biso   1.000  O
  O19      1.0000 0.86570  0.86570  0.69530  Biso   1.000  O
  O20      1.0000 0.69530  0.57330  0.86570  Biso   1.000  O
  O21      1.0000 0.86570  0.86570  0.57330  Biso   1.000  O
  O22      1.0000 0.57330  0.69530  0.86570  Biso   1.000  O
  O23      1.0000 0.69530  0.86570  0.57330  Biso   1.000  O
  O24      1.0000 0.86570  0.57330  0.86570  Biso   1.000  O
  O25      1.0000 0.57330  0.86570  0.69530  Biso   1.000  O
  O26      1.0000 0.86570  0.69530  0.86570  Biso   1.000  O
  Zn9      1.0000 0.27467  0.72881  0.91482  Biso   1.000  Zn
  Zn10     1.0000 0.08721  0.72881  0.10228  Biso   1.000  Zn
  Zn11     1.0000 0.08721  0.91627  0.91482  Biso   1.000  Zn
  Zn12     1.0000 0.08721  0.72881  0.91482  Biso   1.000  Zn
  Zn13     1.0000 0.66383  0.32253  0.33822  Biso   1.000  Zn
  Zn14     1.0000 0.49351  0.32253  0.50854  Biso   1.000  Zn
  Zn15     1.0000 0.66383  0.32253  0.50854  Biso   1.000  Zn
  Zn16     1.0000 0.66383  0.15221  0.50854  Biso   1.000  Zn
  H25      1.0000 0.52208  0.48410  0.15684  Biso   1.000  H
  H26      1.0000 0.31213  0.48410  0.36679  Biso   1.000  H
  H27      1.0000 0.82540  0.18078  0.67011  Biso   1.000  H
  H28      1.0000 0.82540  0.97083  0.67011  Biso   1.000  H
  H29      1.0000 0.82540  0.97083  0.36679  Biso   1.000  H
  H30      1.0000 0.82540  0.18078  0.15684  Biso   1.000  H
  H31      1.0000 0.52208  0.48410  0.67011  Biso   1.000  H
  H32      1.0000 0.31213  0.48410  0.67011  Biso   1.000  H
  H33      1.0000 0.31213  0.18078  0.67011  Biso   1.000  H
  H34      1.0000 0.52208  0.97083  0.67011  Biso   1.000  H
  H35      1.0000 0.82540  0.48410  0.36679  Biso   1.000  H
  H36      1.0000 0.82540  0.48410  0.15684  Biso   1.000  H
  C49      1.0000 0.41327  0.55025  0.13335  Biso   1.000  C
  C50      1.0000 0.46084  0.50052  0.18525  Biso   1.000  C
  C51      1.0000 0.28864  0.55025  0.25798  Biso   1.000  C
  C52      1.0000 0.34053  0.50052  0.30555  Biso   1.000  C
  C53      1.0000 0.89155  0.07197  0.73626  Biso   1.000  C
  C54      1.0000 0.84181  0.11954  0.68652  Biso   1.000  C
  C55      1.0000 0.89155  0.94734  0.73626  Biso   1.000  C
  C56      1.0000 0.84181  0.99924  0.68652  Biso   1.000  C
  C57      1.0000 0.89155  0.94734  0.25798  Biso   1.000  C
  C58      1.0000 0.84181  0.99924  0.30555  Biso   1.000  C
  C59      1.0000 0.89155  0.07197  0.13335  Biso   1.000  C
  C60      1.0000 0.84181  0.11954  0.18525  Biso   1.000  C
  C61      1.0000 0.41327  0.55025  0.73626  Biso   1.000  C
  C62      1.0000 0.46084  0.50052  0.68652  Biso   1.000  C
  C63      1.0000 0.28864  0.55025  0.73626  Biso   1.000  C
  C64      1.0000 0.34053  0.50052  0.68652  Biso   1.000  C
  C65      1.0000 0.28864  0.07197  0.73626  Biso   1.000  C
  C66      1.0000 0.34053  0.11954  0.68652  Biso   1.000  C
  C67      1.0000 0.41327  0.94734  0.73626  Biso   1.000  C
  C68      1.0000 0.46084  0.99924  0.68652  Biso   1.000  C
  C69      1.0000 0.89155  0.55025  0.25798  Biso   1.000  C
  C70      1.0000 0.84181  0.50052  0.30555  Biso   1.000  C
  C71      1.0000 0.89155  0.55025  0.13335  Biso   1.000  C
  C72      1.0000 0.84181  0.50052  0.18525  Biso   1.000  C
  C73      1.0000 0.26397  0.63724  0.10868  Biso   1.000  C
  C74      1.0000 0.32687  0.57433  0.17158  Biso   1.000  C
  C75      1.0000 0.48207  0.41913  0.32678  Biso   1.000  C
  C76      1.0000 0.43243  0.46877  0.27715  Biso   1.000  C
  C77      1.0000 0.97853  0.92267  0.82325  Biso   1.000  C
  C78      1.0000 0.91563  0.98557  0.76034  Biso   1.000  C
  C79      1.0000 0.76043  0.14077  0.60514  Biso   1.000  C
  C80      1.0000 0.81006  0.09114  0.65478  Biso   1.000  C
  C81      1.0000 0.97853  0.92267  0.10868  Biso   1.000  C
  C82      1.0000 0.91563  0.98557  0.17158  Biso   1.000  C
  C83      1.0000 0.76043  0.14077  0.32678  Biso   1.000  C
  C84      1.0000 0.81006  0.09114  0.27715  Biso   1.000  C
  C85      1.0000 0.26397  0.63724  0.82325  Biso   1.000  C
  C86      1.0000 0.32687  0.57433  0.76034  Biso   1.000  C
  C87      1.0000 0.48207  0.41913  0.60514  Biso   1.000  C
  C88      1.0000 0.43243  0.46877  0.65478  Biso   1.000  C
  C89      1.0000 0.26397  0.92267  0.82325  Biso   1.000  C
  C90      1.0000 0.32687  0.98557  0.76034  Biso   1.000  C
  C91      1.0000 0.48207  0.14077  0.60514  Biso   1.000  C
  C92      1.0000 0.43243  0.09114  0.65478  Biso   1.000  C
  C93      1.0000 0.97853  0.63724  0.10868  Biso   1.000  C
  C94      1.0000 0.91563  0.57433  0.17158  Biso   1.000  C
  C95      1.0000 0.76043  0.41913  0.32678  Biso   1.000  C
  C96      1.0000 0.81006  0.46877  0.27715  Biso   1.000  C
  O27      1.0000 0.62125  0.27995  0.46596  Biso   1.000  O
  O28      1.0000 0.14690  0.77140  0.95741  Biso   1.000  O
  O29      1.0000 0.30210  0.65886  0.02729  Biso   1.000  O
  O30      1.0000 0.56591  0.39466  0.29189  Biso   1.000  O
  O31      1.0000 0.18258  0.65886  0.14681  Biso   1.000  O
  O32      1.0000 0.44718  0.39466  0.41062  Biso   1.000  O
  O33      1.0000 0.00016  0.96081  0.84487  Biso   1.000  O
  O34      1.0000 0.73595  0.22462  0.58067  Biso   1.000  O
  O35      1.0000 0.00016  0.84128  0.84487  Biso   1.000  O
  O36      1.0000 0.73595  0.10588  0.58067  Biso   1.000  O
  O37      1.0000 0.00016  0.84128  0.14681  Biso   1.000  O
  O38      1.0000 0.73595  0.10588  0.41062  Biso   1.000  O
  O39      1.0000 0.00016  0.96081  0.02729  Biso   1.000  O
  O40      1.0000 0.73595  0.22462  0.29189  Biso   1.000  O
  O41      1.0000 0.30210  0.65886  0.84487  Biso   1.000  O
  O42      1.0000 0.56591  0.39466  0.58067  Biso   1.000  O
  O43      1.0000 0.18258  0.65886  0.84487  Biso   1.000  O
  O44      1.0000 0.44718  0.39466  0.58067  Biso   1.000  O
  O45      1.0000 0.18258  0.96081  0.84487  Biso   1.000  O
  O46      1.0000 0.44718  0.22462  0.58067  Biso   1.000  O
  O47      1.0000 0.30210  0.84128  0.84487  Biso   1.000  O
  O48      1.0000 0.56591  0.10588  0.58067  Biso   1.000  O
  O49      1.0000 0.00016  0.65886  0.14681  Biso   1.000  O
  O50      1.0000 0.73595  0.39466  0.41062  Biso   1.000  O
  O51      1.0000 0.00016  0.65886  0.02729  Biso   1.000  O
  O52      1.0000 0.73595  0.39466  0.29189  Biso   1.000  O
