data_image0
_cell_length_a       18.283
_cell_length_b       18.283
_cell_length_c       18.283
_cell_angle_alpha    60
_cell_angle_beta     60
_cell_angle_gamma    60

loop_
  _atom_site_label
  _atom_site_occupancy
  _atom_site_fract_x
  _atom_site_fract_y
  _atom_site_fract_z
  _atom_site_thermal_displace_type
  _atom_site_B_iso_or_equiv
  _atom_site_type_symbol
  C1       1.0000 0.20670  0.37990  0.20670  Biso   1.000  C
  C2       1.0000 0.37990  0.20670  0.20670  Biso   1.000  C
  C3       1.0000 0.20670  0.20670  0.20670  Biso   1.000  C
  C4       1.0000 0.20670  0.20670  0.37990  Biso   1.000  C
  C5       1.0000 0.62010  0.79330  0.79330  Biso   1.000  C
  C6       1.0000 0.79330  0.62010  0.79330  Biso   1.000  C
  C7       1.0000 0.79330  0.79330  0.79330  Biso   1.000  C
  C8       1.0000 0.79330  0.79330  0.62010  Biso   1.000  C
  C9       1.0000 0.04940  0.56380  0.04940  Biso   1.000  C
  C10      1.0000 0.56380  0.04940  0.33740  Biso   1.000  C
  C11      1.0000 0.04940  0.33740  0.04940  Biso   1.000  C
  C12      1.0000 0.33740  0.04940  0.56380  Biso   1.000  C
  C13      1.0000 0.04940  0.04940  0.33740  Biso   1.000  C
  C14      1.0000 0.56380  0.33740  0.04940  Biso   1.000  C
  C15      1.0000 0.04940  0.04940  0.56380  Biso   1.000  C
  C16      1.0000 0.33740  0.56380  0.04940  Biso   1.000  C
  C17      1.0000 0.04940  0.33740  0.56380  Biso   1.000  C
  C18      1.0000 0.56380  0.04940  0.04940  Biso   1.000  C
  C19      1.0000 0.04940  0.56380  0.33740  Biso   1.000  C
  C20      1.0000 0.33740  0.04940  0.04940  Biso   1.000  C
  C21      1.0000 0.43620  0.95060  0.95060  Biso   1.000  C
  C22      1.0000 0.95060  0.43620  0.66260  Biso   1.000  C
  C23      1.0000 0.66260  0.95060  0.95060  Biso   1.000  C
  C24      1.0000 0.95060  0.66260  0.43620  Biso   1.000  C
  C25      1.0000 0.95060  0.95060  0.66260  Biso   1.000  C
  C26      1.0000 0.66260  0.43620  0.95060  Biso   1.000  C
  C27      1.0000 0.95060  0.95060  0.43620  Biso   1.000  C
  C28      1.0000 0.43620  0.66260  0.95060  Biso   1.000  C
  C29      1.0000 0.66260  0.95060  0.43620  Biso   1.000  C
  C30      1.0000 0.95060  0.43620  0.95060  Biso   1.000  C
  C31      1.0000 0.43620  0.95060  0.66260  Biso   1.000  C
  C32      1.0000 0.95060  0.66260  0.95060  Biso   1.000  C
  C33      1.0000 0.02700  0.53820  0.02700  Biso   1.000  C
  C34      1.0000 0.53820  0.02700  0.40780  Biso   1.000  C
  C35      1.0000 0.02700  0.40780  0.02700  Biso   1.000  C
  C36      1.0000 0.40780  0.02700  0.53820  Biso   1.000  C
  C37      1.0000 0.02700  0.02700  0.40780  Biso   1.000  C
  C38      1.0000 0.53820  0.40780  0.02700  Biso   1.000  C
  C39      1.0000 0.02700  0.02700  0.53820  Biso   1.000  C
  C40      1.0000 0.40780  0.53820  0.02700  Biso   1.000  C
  C41      1.0000 0.02700  0.40780  0.53820  Biso   1.000  C
  C42      1.0000 0.53820  0.02700  0.02700  Biso   1.000  C
  C43      1.0000 0.02700  0.53820  0.40780  Biso   1.000  C
  C44      1.0000 0.40780  0.02700  0.02700  Biso   1.000  C
  C45      1.0000 0.46180  0.97300  0.97300  Biso   1.000  C
  C46      1.0000 0.97300  0.46180  0.59220  Biso   1.000  C
  C47      1.0000 0.59220  0.97300  0.97300  Biso   1.000  C
  C48      1.0000 0.97300  0.59220  0.46180  Biso   1.000  C
  C49      1.0000 0.97300  0.97300  0.59220  Biso   1.000  C
  C50      1.0000 0.59220  0.46180  0.97300  Biso   1.000  C
  C51      1.0000 0.97300  0.97300  0.46180  Biso   1.000  C
  C52      1.0000 0.46180  0.59220  0.97300  Biso   1.000  C
  C53      1.0000 0.59220  0.97300  0.46180  Biso   1.000  C
  C54      1.0000 0.97300  0.46180  0.97300  Biso   1.000  C
  C55      1.0000 0.46180  0.97300  0.59220  Biso   1.000  C
  C56      1.0000 0.97300  0.59220  0.97300  Biso   1.000  C
  C57      1.0000 0.11070  0.38930  0.11070  Biso   1.000  C
  C58      1.0000 0.05420  0.44580  0.05420  Biso   1.000  C
  C59      1.0000 0.38930  0.11070  0.38930  Biso   1.000  C
  C60      1.0000 0.44580  0.05420  0.44580  Biso   1.000  C
  C61      1.0000 0.11070  0.11070  0.38930  Biso   1.000  C
  C62      1.0000 0.05420  0.05420  0.44580  Biso   1.000  C
  C63      1.0000 0.38930  0.38930  0.11070  Biso   1.000  C
  C64      1.0000 0.44580  0.44580  0.05420  Biso   1.000  C
  C65      1.0000 0.11070  0.38930  0.38930  Biso   1.000  C
  C66      1.0000 0.05420  0.44580  0.44580  Biso   1.000  C
  C67      1.0000 0.38930  0.11070  0.11070  Biso   1.000  C
  C68      1.0000 0.44580  0.05420  0.05420  Biso   1.000  C
  C69      1.0000 0.61070  0.88930  0.88930  Biso   1.000  C
  C70      1.0000 0.55420  0.94580  0.94580  Biso   1.000  C
  C71      1.0000 0.88930  0.61070  0.61070  Biso   1.000  C
  C72      1.0000 0.94580  0.55420  0.55420  Biso   1.000  C
  C73      1.0000 0.88930  0.88930  0.61070  Biso   1.000  C
  C74      1.0000 0.94580  0.94580  0.55420  Biso   1.000  C
  C75      1.0000 0.61070  0.61070  0.88930  Biso   1.000  C
  C76      1.0000 0.55420  0.55420  0.94580  Biso   1.000  C
  C77      1.0000 0.61070  0.88930  0.61070  Biso   1.000  C
  C78      1.0000 0.55420  0.94580  0.55420  Biso   1.000  C
  C79      1.0000 0.88930  0.61070  0.88930  Biso   1.000  C
  C80      1.0000 0.94580  0.55420  0.94580  Biso   1.000  C
  C81      1.0000 0.25000  0.25000  0.25000  Biso   1.000  C
  C82      1.0000 0.75000  0.75000  0.75000  Biso   1.000  C
  C83      1.0000 0.13430  0.42670  0.13430  Biso   1.000  C
  C84      1.0000 0.42670  0.13430  0.30470  Biso   1.000  C
  C85      1.0000 0.13430  0.30470  0.13430  Biso   1.000  C
  C86      1.0000 0.30470  0.13430  0.42670  Biso   1.000  C
  C87      1.0000 0.13430  0.13430  0.30470  Biso   1.000  C
  C88      1.0000 0.42670  0.30470  0.13430  Biso   1.000  C
  C89      1.0000 0.13430  0.13430  0.42670  Biso   1.000  C
  C90      1.0000 0.30470  0.42670  0.13430  Biso   1.000  C
  C91      1.0000 0.13430  0.30470  0.42670  Biso   1.000  C
  C92      1.0000 0.42670  0.13430  0.13430  Biso   1.000  C
  C93      1.0000 0.13430  0.42670  0.30470  Biso   1.000  C
  C94      1.0000 0.30470  0.13430  0.13430  Biso   1.000  C
  C95      1.0000 0.57330  0.86570  0.86570  Biso   1.000  C
  C96      1.0000 0.86570  0.57330  0.69530  Biso   1.000  C
  C97      1.0000 0.69530  0.86570  0.86570  Biso   1.000  C
  C98      1.0000 0.86570  0.69530  0.57330  Biso   1.000  C
  C99      1.0000 0.86570  0.86570  0.69530  Biso   1.000  C
  C100     1.0000 0.69530  0.57330  0.86570  Biso   1.000  C
  C101     1.0000 0.86570  0.86570  0.57330  Biso   1.000  C
  C102     1.0000 0.57330  0.69530  0.86570  Biso   1.000  C
  C103     1.0000 0.69530  0.86570  0.57330  Biso   1.000  C
  C104     1.0000 0.86570  0.57330  0.86570  Biso   1.000  C
  C105     1.0000 0.57330  0.86570  0.69530  Biso   1.000  C
  C106     1.0000 0.86570  0.69530  0.86570  Biso   1.000  C
  O1       1.0000 0.05618  0.49363  0.19485  Biso   1.000  O
  O2       1.0000 0.05613  0.49368  0.36562  Biso   1.000  O
  O3       1.0000 0.05618  0.66446  0.19485  Biso   1.000  O
  O4       1.0000 0.22695  0.49368  0.19480  Biso   1.000  O
  O5       1.0000 0.64880  0.08635  0.77296  Biso   1.000  O
  O6       1.0000 0.64884  0.08630  0.60219  Biso   1.000  O
  O7       1.0000 0.64880  0.91552  0.77296  Biso   1.000  O
  O8       1.0000 0.47802  0.08630  0.77301  Biso   1.000  O
  O9       1.0000 0.87930  0.31582  0.39283  Biso   1.000  O
  O10      1.0000 0.89182  0.69185  0.00327  Biso   1.000  O
  O11      1.0000 0.26868  0.31521  0.00425  Biso   1.000  O
  O12      1.0000 0.87832  0.31680  0.52233  Biso   1.000  O
  O13      1.0000 0.26887  0.31482  0.52333  Biso   1.000  O
  O14      1.0000 0.89221  0.69167  0.52214  Biso   1.000  O
  O15      1.0000 0.26867  0.83567  0.00347  Biso   1.000  O
  O16      1.0000 0.87910  0.83666  0.00149  Biso   1.000  O
  O17      1.0000 0.88008  0.83549  0.39284  Biso   1.000  O
  O18      1.0000 0.41266  0.69165  0.00249  Biso   1.000  O
  O19      1.0000 0.39916  0.31660  0.39304  Biso   1.000  O
  O20      1.0000 0.39798  0.31757  0.00189  Biso   1.000  O
  O21      1.0000 0.82567  0.26416  0.57498  Biso   1.000  O
  O22      1.0000 0.82766  0.88810  0.95005  Biso   1.000  O
  O23      1.0000 0.45080  0.26475  0.94906  Biso   1.000  O
  O24      1.0000 0.82666  0.26318  0.44548  Biso   1.000  O
  O25      1.0000 0.45060  0.26516  0.44448  Biso   1.000  O
  O26      1.0000 0.82726  0.88831  0.44567  Biso   1.000  O
  O27      1.0000 0.45081  0.75882  0.94984  Biso   1.000  O
  O28      1.0000 0.82588  0.75782  0.95182  Biso   1.000  O
  O29      1.0000 0.82489  0.75902  0.57497  Biso   1.000  O
  O30      1.0000 0.32131  0.88831  0.95083  Biso   1.000  O
  O31      1.0000 0.32032  0.26338  0.57477  Biso   1.000  O
  O32      1.0000 0.32150  0.26239  0.95143  Biso   1.000  O
  O33      1.0000 0.90551  0.34301  0.43088  Biso   1.000  O
  O34      1.0000 0.96333  0.40084  0.37306  Biso   1.000  O
  O35      1.0000 0.32122  0.72969  0.02968  Biso   1.000  O
  O36      1.0000 0.23438  0.67189  0.10200  Biso   1.000  O
  O37      1.0000 0.79947  0.23697  0.53693  Biso   1.000  O
  O38      1.0000 0.74164  0.17914  0.59476  Biso   1.000  O
  O39      1.0000 0.41276  0.85026  0.92364  Biso   1.000  O
  O40      1.0000 0.47059  0.90809  0.86581  Biso   1.000  O
  O41      1.0000 0.30692  0.34280  0.02948  Biso   1.000  O
  O42      1.0000 0.23486  0.40037  0.10153  Biso   1.000  O
  O43      1.0000 0.90531  0.74443  0.43108  Biso   1.000  O
  O44      1.0000 0.96286  0.67235  0.37353  Biso   1.000  O
  O45      1.0000 0.41256  0.23716  0.92384  Biso   1.000  O
  O46      1.0000 0.47012  0.17961  0.86628  Biso   1.000  O
  O47      1.0000 0.79966  0.85007  0.53673  Biso   1.000  O
  O48      1.0000 0.74211  0.90762  0.59428  Biso   1.000  O
  O49      1.0000 0.90512  0.74462  0.02929  Biso   1.000  O
  O50      1.0000 0.96266  0.67256  0.10133  Biso   1.000  O
  O51      1.0000 0.30711  0.34262  0.43128  Biso   1.000  O
  O52      1.0000 0.23506  0.40017  0.37373  Biso   1.000  O
  O53      1.0000 0.79986  0.84987  0.92403  Biso   1.000  O
  O54      1.0000 0.74231  0.90742  0.86648  Biso   1.000  O
  O55      1.0000 0.41236  0.23736  0.53653  Biso   1.000  O
  O56      1.0000 0.46992  0.17981  0.59408  Biso   1.000  O
  O57      1.0000 0.98403  0.42311  0.29004  Biso   1.000  O
  O58      1.0000 0.15219  0.42120  0.12427  Biso   1.000  O
  O59      1.0000 0.98444  0.58846  0.12392  Biso   1.000  O
  O60      1.0000 0.98561  0.42153  0.41311  Biso   1.000  O
  O61      1.0000 0.98370  0.58969  0.41261  Biso   1.000  O
  O62      1.0000 0.15095  0.42195  0.41346  Biso   1.000  O
  O63      1.0000 0.15137  0.71194  0.12270  Biso   1.000  O
  O64      1.0000 0.98561  0.71144  0.29086  Biso   1.000  O
  O65      1.0000 0.98525  0.71229  0.12311  Biso   1.000  O
  O66      1.0000 0.27444  0.58887  0.12427  Biso   1.000  O
  O67      1.0000 0.27394  0.42312  0.12236  Biso   1.000  O
  O68      1.0000 0.27479  0.42276  0.28962  Biso   1.000  O
  O69      1.0000 0.72094  0.15687  0.67777  Biso   1.000  O
  O70      1.0000 0.55278  0.15878  0.84354  Biso   1.000  O
  O71      1.0000 0.72053  0.99152  0.84389  Biso   1.000  O
  O72      1.0000 0.71937  0.15845  0.55470  Biso   1.000  O
  O73      1.0000 0.72128  0.99029  0.55520  Biso   1.000  O
  O74      1.0000 0.55402  0.15803  0.55435  Biso   1.000  O
  O75      1.0000 0.55361  0.86804  0.84511  Biso   1.000  O
  O76      1.0000 0.71937  0.86854  0.67695  Biso   1.000  O
  O77      1.0000 0.71972  0.86769  0.84470  Biso   1.000  O
  O78      1.0000 0.43054  0.99111  0.84354  Biso   1.000  O
  O79      1.0000 0.43103  0.15686  0.84545  Biso   1.000  O
  O80      1.0000 0.43018  0.15722  0.67819  Biso   1.000  O
  O81      1.0000 0.09886  0.53636  0.23753  Biso   1.000  O
  O82      1.0000 0.60611  0.04362  0.73028  Biso   1.000  O
  O83      1.0000 0.91298  0.61637  0.02589  Biso   1.000  O
  O84      1.0000 0.90172  0.86837  0.02265  Biso   1.000  O
  O85      1.0000 0.80650  0.96359  0.92743  Biso   1.000  O
  O86      1.0000 0.81776  0.71158  0.93067  Biso   1.000  O
  O87      1.0000 0.90294  0.86721  0.31736  Biso   1.000  O
  O88      1.0000 0.80635  0.96379  0.41395  Biso   1.000  O
  O89      1.0000 0.19320  0.33611  0.02712  Biso   1.000  O
  O90      1.0000 0.28979  0.23952  0.93053  Biso   1.000  O
  O91      1.0000 0.89979  0.33909  0.55405  Biso   1.000  O
  O92      1.0000 0.19338  0.33598  0.55504  Biso   1.000  O
  O93      1.0000 0.28959  0.96380  0.92935  Biso   1.000  O
  O94      1.0000 0.28860  0.24076  0.65026  Biso   1.000  O
  O95      1.0000 0.91312  0.61619  0.55386  Biso   1.000  O
  O96      1.0000 0.81653  0.71277  0.65045  Biso   1.000  O
  O97      1.0000 0.42969  0.34043  0.02279  Biso   1.000  O
  O98      1.0000 0.52628  0.24385  0.92620  Biso   1.000  O
  O99      1.0000 0.54080  0.71257  0.92755  Biso   1.000  O
  O100     1.0000 0.43087  0.33922  0.31755  Biso   1.000  O
  O101     1.0000 0.52609  0.24400  0.41277  Biso   1.000  O
  O102     1.0000 0.44439  0.61616  0.02396  Biso   1.000  O
  O103     1.0000 0.80518  0.24089  0.41376  Biso   1.000  O
  O104     1.0000 0.90159  0.33730  0.31734  Biso   1.000  O
  O105     1.0000 0.80338  0.24268  0.65047  Biso   1.000  O
  O106     1.0000 0.19318  0.86739  0.02577  Biso   1.000  O
