data_image0
_cell_length_a       18.3054
_cell_length_b       18.3054
_cell_length_c       18.3054
_cell_angle_alpha    60
_cell_angle_beta     60
_cell_angle_gamma    60

loop_
  _atom_site_label
  _atom_site_occupancy
  _atom_site_fract_x
  _atom_site_fract_y
  _atom_site_fract_z
  _atom_site_thermal_displace_type
  _atom_site_B_iso_or_equiv
  _atom_site_type_symbol
  Zn1      1.0000 0.20570  0.38290  0.20570  Biso   1.000  Zn
  Zn2      1.0000 0.38290  0.20570  0.20570  Biso   1.000  Zn
  Zn3      1.0000 0.20570  0.20570  0.20570  Biso   1.000  Zn
  Zn4      1.0000 0.20570  0.20570  0.38290  Biso   1.000  Zn
  Zn5      1.0000 0.61710  0.79430  0.79430  Biso   1.000  Zn
  Zn6      1.0000 0.79430  0.61710  0.79430  Biso   1.000  Zn
  Zn7      1.0000 0.79430  0.79430  0.79430  Biso   1.000  Zn
  Zn8      1.0000 0.79430  0.79430  0.61710  Biso   1.000  Zn
  H1       1.0000 0.04300  0.56200  0.04300  Biso   1.000  H
  H2       1.0000 0.56200  0.04300  0.35200  Biso   1.000  H
  H3       1.0000 0.04300  0.35200  0.04300  Biso   1.000  H
  H4       1.0000 0.35200  0.04300  0.56200  Biso   1.000  H
  H5       1.0000 0.04300  0.04300  0.35200  Biso   1.000  H
  H6       1.0000 0.56200  0.35200  0.04300  Biso   1.000  H
  H7       1.0000 0.04300  0.04300  0.56200  Biso   1.000  H
  H8       1.0000 0.35200  0.56200  0.04300  Biso   1.000  H
  H9       1.0000 0.04300  0.35200  0.56200  Biso   1.000  H
  H10      1.0000 0.56200  0.04300  0.04300  Biso   1.000  H
  H11      1.0000 0.04300  0.56200  0.35200  Biso   1.000  H
  H12      1.0000 0.35200  0.04300  0.04300  Biso   1.000  H
  H13      1.0000 0.43800  0.95700  0.95700  Biso   1.000  H
  H14      1.0000 0.95700  0.43800  0.64800  Biso   1.000  H
  H15      1.0000 0.64800  0.95700  0.95700  Biso   1.000  H
  H16      1.0000 0.95700  0.64800  0.43800  Biso   1.000  H
  H17      1.0000 0.95700  0.95700  0.64800  Biso   1.000  H
  H18      1.0000 0.64800  0.43800  0.95700  Biso   1.000  H
  H19      1.0000 0.95700  0.95700  0.43800  Biso   1.000  H
  H20      1.0000 0.43800  0.64800  0.95700  Biso   1.000  H
  H21      1.0000 0.64800  0.95700  0.43800  Biso   1.000  H
  H22      1.0000 0.95700  0.43800  0.95700  Biso   1.000  H
  H23      1.0000 0.43800  0.95700  0.64800  Biso   1.000  H
  H24      1.0000 0.95700  0.64800  0.95700  Biso   1.000  H
  C1       1.0000 0.02820  0.53920  0.02820  Biso   1.000  C
  C2       1.0000 0.53920  0.02820  0.40440  Biso   1.000  C
  C3       1.0000 0.02820  0.40440  0.02820  Biso   1.000  C
  C4       1.0000 0.40440  0.02820  0.53920  Biso   1.000  C
  C5       1.0000 0.02820  0.02820  0.40440  Biso   1.000  C
  C6       1.0000 0.53920  0.40440  0.02820  Biso   1.000  C
  C7       1.0000 0.02820  0.02820  0.53920  Biso   1.000  C
  C8       1.0000 0.40440  0.53920  0.02820  Biso   1.000  C
  C9       1.0000 0.02820  0.40440  0.53920  Biso   1.000  C
  C10      1.0000 0.53920  0.02820  0.02820  Biso   1.000  C
  C11      1.0000 0.02820  0.53920  0.40440  Biso   1.000  C
  C12      1.0000 0.40440  0.02820  0.02820  Biso   1.000  C
  C13      1.0000 0.46080  0.97180  0.97180  Biso   1.000  C
  C14      1.0000 0.97180  0.46080  0.59560  Biso   1.000  C
  C15      1.0000 0.59560  0.97180  0.97180  Biso   1.000  C
  C16      1.0000 0.97180  0.59560  0.46080  Biso   1.000  C
  C17      1.0000 0.97180  0.97180  0.59560  Biso   1.000  C
  C18      1.0000 0.59560  0.46080  0.97180  Biso   1.000  C
  C19      1.0000 0.97180  0.97180  0.46080  Biso   1.000  C
  C20      1.0000 0.46080  0.59560  0.97180  Biso   1.000  C
  C21      1.0000 0.59560  0.97180  0.46080  Biso   1.000  C
  C22      1.0000 0.97180  0.46080  0.97180  Biso   1.000  C
  C23      1.0000 0.46080  0.97180  0.59560  Biso   1.000  C
  C24      1.0000 0.97180  0.59560  0.97180  Biso   1.000  C
  C25      1.0000 0.11460  0.38540  0.11460  Biso   1.000  C
  C26      1.0000 0.05410  0.44590  0.05410  Biso   1.000  C
  C27      1.0000 0.38540  0.11460  0.38540  Biso   1.000  C
  C28      1.0000 0.44590  0.05410  0.44590  Biso   1.000  C
  C29      1.0000 0.11460  0.11460  0.38540  Biso   1.000  C
  C30      1.0000 0.05410  0.05410  0.44590  Biso   1.000  C
  C31      1.0000 0.38540  0.38540  0.11460  Biso   1.000  C
  C32      1.0000 0.44590  0.44590  0.05410  Biso   1.000  C
  C33      1.0000 0.11460  0.38540  0.38540  Biso   1.000  C
  C34      1.0000 0.05410  0.44590  0.44590  Biso   1.000  C
  C35      1.0000 0.38540  0.11460  0.11460  Biso   1.000  C
  C36      1.0000 0.44590  0.05410  0.05410  Biso   1.000  C
  C37      1.0000 0.61460  0.88540  0.88540  Biso   1.000  C
  C38      1.0000 0.55410  0.94590  0.94590  Biso   1.000  C
  C39      1.0000 0.88540  0.61460  0.61460  Biso   1.000  C
  C40      1.0000 0.94590  0.55410  0.55410  Biso   1.000  C
  C41      1.0000 0.88540  0.88540  0.61460  Biso   1.000  C
  C42      1.0000 0.94590  0.94590  0.55410  Biso   1.000  C
  C43      1.0000 0.61460  0.61460  0.88540  Biso   1.000  C
  C44      1.0000 0.55410  0.55410  0.94590  Biso   1.000  C
  C45      1.0000 0.61460  0.88540  0.61460  Biso   1.000  C
  C46      1.0000 0.55410  0.94590  0.55410  Biso   1.000  C
  C47      1.0000 0.88540  0.61460  0.88540  Biso   1.000  C
  C48      1.0000 0.94590  0.55410  0.94590  Biso   1.000  C
  O1       1.0000 0.25000  0.25000  0.25000  Biso   1.000  O
  O2       1.0000 0.75000  0.75000  0.75000  Biso   1.000  O
  O3       1.0000 0.13360  0.42920  0.13360  Biso   1.000  O
  O4       1.0000 0.42920  0.13360  0.30360  Biso   1.000  O
  O5       1.0000 0.13360  0.30360  0.13360  Biso   1.000  O
  O6       1.0000 0.30360  0.13360  0.42920  Biso   1.000  O
  O7       1.0000 0.13360  0.13360  0.30360  Biso   1.000  O
  O8       1.0000 0.42920  0.30360  0.13360  Biso   1.000  O
  O9       1.0000 0.13360  0.13360  0.42920  Biso   1.000  O
  O10      1.0000 0.30360  0.42920  0.13360  Biso   1.000  O
  O11      1.0000 0.13360  0.30360  0.42920  Biso   1.000  O
  O12      1.0000 0.42920  0.13360  0.13360  Biso   1.000  O
  O13      1.0000 0.13360  0.42920  0.30360  Biso   1.000  O
  O14      1.0000 0.30360  0.13360  0.13360  Biso   1.000  O
  O15      1.0000 0.57080  0.86640  0.86640  Biso   1.000  O
  O16      1.0000 0.86640  0.57080  0.69640  Biso   1.000  O
  O17      1.0000 0.69640  0.86640  0.86640  Biso   1.000  O
  O18      1.0000 0.86640  0.69640  0.57080  Biso   1.000  O
  O19      1.0000 0.86640  0.86640  0.69640  Biso   1.000  O
  O20      1.0000 0.69640  0.57080  0.86640  Biso   1.000  O
  O21      1.0000 0.86640  0.86640  0.57080  Biso   1.000  O
  O22      1.0000 0.57080  0.69640  0.86640  Biso   1.000  O
  O23      1.0000 0.69640  0.86640  0.57080  Biso   1.000  O
  O24      1.0000 0.86640  0.57080  0.86640  Biso   1.000  O
  O25      1.0000 0.57080  0.86640  0.69640  Biso   1.000  O
  O26      1.0000 0.86640  0.69640  0.86640  Biso   1.000  O
  Zn9      1.0000 0.05115  0.49243  0.19682  Biso   1.000  Zn
  Zn10     1.0000 0.05110  0.49247  0.36718  Biso   1.000  Zn
  Zn11     1.0000 0.05115  0.66283  0.19682  Biso   1.000  Zn
  Zn12     1.0000 0.22151  0.49248  0.19677  Biso   1.000  Zn
  Zn13     1.0000 0.64476  0.08613  0.77352  Biso   1.000  Zn
  Zn14     1.0000 0.64481  0.08609  0.60316  Biso   1.000  Zn
  Zn15     1.0000 0.64476  0.91573  0.77352  Biso   1.000  Zn
  Zn16     1.0000 0.47440  0.08609  0.77357  Biso   1.000  Zn
  C49      1.0000 0.87470  0.31505  0.39432  Biso   1.000  C
  C50      1.0000 0.88964  0.69016  0.00326  Biso   1.000  C
  C51      1.0000 0.26558  0.31443  0.00424  Biso   1.000  C
  C52      1.0000 0.87372  0.31603  0.52350  Biso   1.000  C
  C53      1.0000 0.26577  0.31405  0.52449  Biso   1.000  C
  C54      1.0000 0.89003  0.68997  0.52331  Biso   1.000  C
  C55      1.0000 0.26557  0.83607  0.00347  Biso   1.000  C
  C56      1.0000 0.87450  0.83706  0.00149  Biso   1.000  C
  C57      1.0000 0.87548  0.83590  0.39433  Biso   1.000  C
  C58      1.0000 0.41165  0.68995  0.00248  Biso   1.000  C
  C59      1.0000 0.39573  0.31583  0.39453  Biso   1.000  C
  C60      1.0000 0.39456  0.31679  0.00188  Biso   1.000  C
  C61      1.0000 0.82121  0.26351  0.57602  Biso   1.000  C
  C62      1.0000 0.82319  0.88838  0.95017  Biso   1.000  C
  C63      1.0000 0.44725  0.26410  0.94919  Biso   1.000  C
  C64      1.0000 0.82219  0.26253  0.44684  Biso   1.000  C
  C65      1.0000 0.44705  0.26451  0.44584  Biso   1.000  C
  C66      1.0000 0.82279  0.88859  0.44702  Biso   1.000  C
  C67      1.0000 0.44726  0.75941  0.94997  Biso   1.000  C
  C68      1.0000 0.82142  0.75842  0.95194  Biso   1.000  C
  C69      1.0000 0.82043  0.75961  0.57601  Biso   1.000  C
  C70      1.0000 0.31808  0.88858  0.95095  Biso   1.000  C
  C71      1.0000 0.31709  0.26274  0.57581  Biso   1.000  C
  C72      1.0000 0.31827  0.26174  0.95155  Biso   1.000  C
  C73      1.0000 0.90085  0.34217  0.43228  Biso   1.000  C
  C74      1.0000 0.95853  0.39986  0.37459  Biso   1.000  C
  C75      1.0000 0.32043  0.72791  0.02961  Biso   1.000  C
  C76      1.0000 0.22892  0.67024  0.10420  Biso   1.000  C
  C77      1.0000 0.79507  0.23639  0.53806  Biso   1.000  C
  C78      1.0000 0.73738  0.17870  0.59575  Biso   1.000  C
  C79      1.0000 0.40930  0.85063  0.92383  Biso   1.000  C
  C80      1.0000 0.46699  0.90832  0.86614  Biso   1.000  C
  C81      1.0000 0.30372  0.34196  0.02941  Biso   1.000  C
  C82      1.0000 0.22939  0.39939  0.10373  Biso   1.000  C
  C83      1.0000 0.90065  0.74506  0.43247  Biso   1.000  C
  C84      1.0000 0.95806  0.67071  0.37506  Biso   1.000  C
  C85      1.0000 0.40911  0.23658  0.92402  Biso   1.000  C
  C86      1.0000 0.46652  0.17917  0.86661  Biso   1.000  C
  C87      1.0000 0.79526  0.85044  0.53786  Biso   1.000  C
  C88      1.0000 0.73785  0.90785  0.59527  Biso   1.000  C
  C89      1.0000 0.90046  0.74524  0.02921  Biso   1.000  C
  C90      1.0000 0.95786  0.67091  0.10353  Biso   1.000  C
  C91      1.0000 0.30391  0.34178  0.43267  Biso   1.000  C
  C92      1.0000 0.22959  0.39919  0.37526  Biso   1.000  C
  C93      1.0000 0.79546  0.85024  0.92422  Biso   1.000  C
  C94      1.0000 0.73805  0.90765  0.86681  Biso   1.000  C
  C95      1.0000 0.40891  0.23678  0.53766  Biso   1.000  C
  C96      1.0000 0.46632  0.17937  0.59508  Biso   1.000  C
  O27      1.0000 0.97918  0.42208  0.29177  Biso   1.000  O
  O28      1.0000 0.14693  0.42017  0.12642  Biso   1.000  O
  O29      1.0000 0.97959  0.58702  0.12606  Biso   1.000  O
  O30      1.0000 0.98075  0.42050  0.41454  Biso   1.000  O
  O31      1.0000 0.97884  0.58825  0.41405  Biso   1.000  O
  O32      1.0000 0.14569  0.42091  0.41490  Biso   1.000  O
  O33      1.0000 0.14610  0.71020  0.12484  Biso   1.000  O
  O34      1.0000 0.98075  0.70970  0.29260  Biso   1.000  O
  O35      1.0000 0.98039  0.71055  0.12526  Biso   1.000  O
  O36      1.0000 0.26887  0.58743  0.12642  Biso   1.000  O
  O37      1.0000 0.26838  0.42208  0.12451  Biso   1.000  O
  O38      1.0000 0.26923  0.42172  0.29136  Biso   1.000  O
  O39      1.0000 0.71673  0.15648  0.67856  Biso   1.000  O
  O40      1.0000 0.54898  0.15839  0.84392  Biso   1.000  O
  O41      1.0000 0.71632  0.99154  0.84427  Biso   1.000  O
  O42      1.0000 0.71516  0.15806  0.55579  Biso   1.000  O
  O43      1.0000 0.71707  0.99031  0.55628  Biso   1.000  O
  O44      1.0000 0.55022  0.15765  0.55544  Biso   1.000  O
  O45      1.0000 0.54981  0.86837  0.84549  Biso   1.000  O
  O46      1.0000 0.71516  0.86886  0.67774  Biso   1.000  O
  O47      1.0000 0.71552  0.86801  0.84508  Biso   1.000  O
  O48      1.0000 0.42704  0.99113  0.84392  Biso   1.000  O
  O49      1.0000 0.42753  0.15648  0.84583  Biso   1.000  O
  O50      1.0000 0.42668  0.15684  0.67898  Biso   1.000  O
  O51      1.0000 0.09373  0.53505  0.23939  Biso   1.000  O
  O52      1.0000 0.60218  0.04351  0.73094  Biso   1.000  O
  H25      1.0000 0.91075  0.61486  0.02582  Biso   1.000  H
  H26      1.0000 0.89706  0.86870  0.02260  Biso   1.000  H
  H27      1.0000 0.80208  0.96368  0.92761  Biso   1.000  H
  H28      1.0000 0.81576  0.70984  0.93084  Biso   1.000  H
  H29      1.0000 0.89829  0.86753  0.31903  Biso   1.000  H
  H30      1.0000 0.80194  0.96388  0.41539  Biso   1.000  H
  H31      1.0000 0.19028  0.33529  0.02705  Biso   1.000  H
  H32      1.0000 0.28663  0.23894  0.93070  Biso   1.000  H
  H33      1.0000 0.89514  0.33826  0.55514  Biso   1.000  H
  H34      1.0000 0.19047  0.33516  0.55613  Biso   1.000  H
  H35      1.0000 0.28644  0.96389  0.92953  Biso   1.000  H
  H36      1.0000 0.28545  0.24017  0.65111  Biso   1.000  H
  H37      1.0000 0.91088  0.61468  0.55495  Biso   1.000  H
  H38      1.0000 0.81453  0.71103  0.65130  Biso   1.000  H
  H39      1.0000 0.42619  0.33960  0.02273  Biso   1.000  H
  H40      1.0000 0.52255  0.24325  0.92638  Biso   1.000  H
  H41      1.0000 0.53948  0.71083  0.92773  Biso   1.000  H
  H42      1.0000 0.42737  0.33839  0.31922  Biso   1.000  H
  H43      1.0000 0.52236  0.24340  0.41421  Biso   1.000  H
  H44      1.0000 0.44330  0.61465  0.02390  Biso   1.000  H
  H45      1.0000 0.80077  0.24030  0.41519  Biso   1.000  H
  H46      1.0000 0.89694  0.33647  0.31901  Biso   1.000  H
  H47      1.0000 0.79897  0.24209  0.65132  Biso   1.000  H
  H48      1.0000 0.19026  0.86771  0.02570  Biso   1.000  H
