data_image0
_cell_length_a       18.3034
_cell_length_b       18.3034
_cell_length_c       18.3034
_cell_angle_alpha    60
_cell_angle_beta     60
_cell_angle_gamma    60

loop_
  _atom_site_label
  _atom_site_occupancy
  _atom_site_fract_x
  _atom_site_fract_y
  _atom_site_fract_z
  _atom_site_thermal_displace_type
  _atom_site_B_iso_or_equiv
  _atom_site_type_symbol
  C1       1.0000 0.29349  0.29350  0.29350  Biso   1.000  C
  C2       1.0000 0.29349  0.29350  0.11951  Biso   1.000  C
  C3       1.0000 0.29349  0.11951  0.29350  Biso   1.000  C
  C4       1.0000 0.11950  0.29350  0.29350  Biso   1.000  C
  C5       1.0000 0.70651  0.70650  0.70650  Biso   1.000  C
  C6       1.0000 0.70651  0.70650  0.88049  Biso   1.000  C
  C7       1.0000 0.88050  0.70650  0.70650  Biso   1.000  C
  C8       1.0000 0.70651  0.88049  0.70650  Biso   1.000  C
  C9       1.0000 0.45470  0.45470  0.15630  Biso   1.000  C
  C10      1.0000 0.45470  0.45470  0.93430  Biso   1.000  C
  C11      1.0000 0.15630  0.93430  0.45470  Biso   1.000  C
  C12      1.0000 0.93430  0.15630  0.45470  Biso   1.000  C
  C13      1.0000 0.45470  0.15630  0.93430  Biso   1.000  C
  C14      1.0000 0.45470  0.93430  0.15630  Biso   1.000  C
  C15      1.0000 0.15630  0.45470  0.45470  Biso   1.000  C
  C16      1.0000 0.93430  0.45470  0.45470  Biso   1.000  C
  C17      1.0000 0.45470  0.93430  0.45470  Biso   1.000  C
  C18      1.0000 0.45470  0.15630  0.45470  Biso   1.000  C
  C19      1.0000 0.15630  0.45470  0.93430  Biso   1.000  C
  C20      1.0000 0.93430  0.45470  0.15630  Biso   1.000  C
  C21      1.0000 0.54530  0.54530  0.84370  Biso   1.000  C
  C22      1.0000 0.54530  0.54530  0.06570  Biso   1.000  C
  C23      1.0000 0.06570  0.84370  0.54530  Biso   1.000  C
  C24      1.0000 0.84370  0.06570  0.54530  Biso   1.000  C
  C25      1.0000 0.84370  0.54530  0.06570  Biso   1.000  C
  C26      1.0000 0.06570  0.54530  0.84370  Biso   1.000  C
  C27      1.0000 0.54530  0.84370  0.54530  Biso   1.000  C
  C28      1.0000 0.54530  0.06570  0.54530  Biso   1.000  C
  C29      1.0000 0.06570  0.54530  0.54530  Biso   1.000  C
  C30      1.0000 0.84370  0.54530  0.54530  Biso   1.000  C
  C31      1.0000 0.54530  0.84370  0.06570  Biso   1.000  C
  C32      1.0000 0.54530  0.06570  0.84370  Biso   1.000  C
  C33      1.0000 0.47355  0.47355  0.09143  Biso   1.000  C
  C34      1.0000 0.47355  0.47355  0.96147  Biso   1.000  C
  C35      1.0000 0.09143  0.96147  0.47355  Biso   1.000  C
  C36      1.0000 0.96147  0.09143  0.47355  Biso   1.000  C
  C37      1.0000 0.47355  0.09143  0.96147  Biso   1.000  C
  C38      1.0000 0.47355  0.96147  0.09143  Biso   1.000  C
  C39      1.0000 0.09143  0.47355  0.47355  Biso   1.000  C
  C40      1.0000 0.96147  0.47355  0.47355  Biso   1.000  C
  C41      1.0000 0.47355  0.96147  0.47355  Biso   1.000  C
  C42      1.0000 0.47355  0.09143  0.47355  Biso   1.000  C
  C43      1.0000 0.09143  0.47355  0.96147  Biso   1.000  C
  C44      1.0000 0.96147  0.47355  0.09143  Biso   1.000  C
  C45      1.0000 0.52645  0.52645  0.90857  Biso   1.000  C
  C46      1.0000 0.52645  0.52645  0.03853  Biso   1.000  C
  C47      1.0000 0.03853  0.90857  0.52645  Biso   1.000  C
  C48      1.0000 0.90857  0.03853  0.52645  Biso   1.000  C
  C49      1.0000 0.90857  0.52645  0.03853  Biso   1.000  C
  C50      1.0000 0.03853  0.52645  0.90857  Biso   1.000  C
  C51      1.0000 0.52645  0.90857  0.52645  Biso   1.000  C
  C52      1.0000 0.52645  0.03853  0.52645  Biso   1.000  C
  C53      1.0000 0.03853  0.52645  0.52645  Biso   1.000  C
  C54      1.0000 0.90857  0.52645  0.52645  Biso   1.000  C
  C55      1.0000 0.52645  0.90857  0.03853  Biso   1.000  C
  C56      1.0000 0.52645  0.03853  0.90857  Biso   1.000  C
  C57      1.0000 0.38830  0.38830  0.11170  Biso   1.000  C
  C58      1.0000 0.44623  0.44623  0.05377  Biso   1.000  C
  C59      1.0000 0.11170  0.11170  0.38830  Biso   1.000  C
  C60      1.0000 0.05377  0.05377  0.44623  Biso   1.000  C
  C61      1.0000 0.38830  0.11170  0.11170  Biso   1.000  C
  C62      1.0000 0.44623  0.05377  0.05377  Biso   1.000  C
  C63      1.0000 0.11170  0.38830  0.38830  Biso   1.000  C
  C64      1.0000 0.05377  0.44623  0.44623  Biso   1.000  C
  C65      1.0000 0.38830  0.11170  0.38830  Biso   1.000  C
  C66      1.0000 0.44623  0.05377  0.44623  Biso   1.000  C
  C67      1.0000 0.11170  0.38830  0.11170  Biso   1.000  C
  C68      1.0000 0.05377  0.44623  0.05377  Biso   1.000  C
  C69      1.0000 0.61170  0.61170  0.88830  Biso   1.000  C
  C70      1.0000 0.55377  0.55377  0.94623  Biso   1.000  C
  C71      1.0000 0.88830  0.88830  0.61170  Biso   1.000  C
  C72      1.0000 0.94623  0.94623  0.55377  Biso   1.000  C
  C73      1.0000 0.88830  0.61170  0.88830  Biso   1.000  C
  C74      1.0000 0.94623  0.55377  0.94623  Biso   1.000  C
  C75      1.0000 0.61170  0.88830  0.61170  Biso   1.000  C
  C76      1.0000 0.55377  0.94623  0.55377  Biso   1.000  C
  C77      1.0000 0.88830  0.61170  0.61170  Biso   1.000  C
  C78      1.0000 0.94623  0.55377  0.55377  Biso   1.000  C
  C79      1.0000 0.61170  0.88830  0.88830  Biso   1.000  C
  C80      1.0000 0.55377  0.94623  0.94623  Biso   1.000  C
  C81      1.0000 0.36613  0.36613  0.19527  Biso   1.000  C
  C82      1.0000 0.36613  0.36613  0.07247  Biso   1.000  C
  C83      1.0000 0.19527  0.07247  0.36613  Biso   1.000  C
  C84      1.0000 0.07247  0.19527  0.36613  Biso   1.000  C
  C85      1.0000 0.36613  0.19527  0.07247  Biso   1.000  C
  C86      1.0000 0.36613  0.07247  0.19527  Biso   1.000  C
  C87      1.0000 0.19527  0.36613  0.36613  Biso   1.000  C
  C88      1.0000 0.07247  0.36613  0.36613  Biso   1.000  C
  C89      1.0000 0.36613  0.07247  0.36613  Biso   1.000  C
  C90      1.0000 0.36613  0.19527  0.36613  Biso   1.000  C
  C91      1.0000 0.19527  0.36613  0.07247  Biso   1.000  C
  C92      1.0000 0.07247  0.36613  0.19527  Biso   1.000  C
  C93      1.0000 0.63387  0.63387  0.80473  Biso   1.000  C
  C94      1.0000 0.63387  0.63387  0.92753  Biso   1.000  C
  C95      1.0000 0.92753  0.80473  0.63387  Biso   1.000  C
  C96      1.0000 0.80473  0.92753  0.63387  Biso   1.000  C
  C97      1.0000 0.80473  0.63387  0.92753  Biso   1.000  C
  C98      1.0000 0.92753  0.63387  0.80473  Biso   1.000  C
  C99      1.0000 0.63387  0.80473  0.63387  Biso   1.000  C
  C100     1.0000 0.63387  0.92753  0.63387  Biso   1.000  C
  C101     1.0000 0.92753  0.63387  0.63387  Biso   1.000  C
  C102     1.0000 0.80473  0.63387  0.63387  Biso   1.000  C
  C103     1.0000 0.63387  0.80473  0.92753  Biso   1.000  C
  C104     1.0000 0.63387  0.92753  0.80473  Biso   1.000  C
  C105     1.0000 0.25000  0.25000  0.25000  Biso   1.000  C
  C106     1.0000 0.75000  0.75000  0.75000  Biso   1.000  C
  O1       1.0000 0.97979  0.59463  0.26299  Biso   1.000  O
  O2       1.0000 0.97975  0.59468  0.43339  Biso   1.000  O
  O3       1.0000 0.97979  0.76507  0.26299  Biso   1.000  O
  O4       1.0000 0.15019  0.59468  0.26294  Biso   1.000  O
  O5       1.0000 0.57332  0.18825  0.83982  Biso   1.000  O
  O6       1.0000 0.57337  0.18820  0.66942  Biso   1.000  O
  O7       1.0000 0.57332  0.01781  0.83982  Biso   1.000  O
  O8       1.0000 0.40292  0.18820  0.83987  Biso   1.000  O
  O9       1.0000 0.80331  0.41721  0.46054  Biso   1.000  O
  O10      1.0000 0.81803  0.79241  0.06961  Biso   1.000  O
  O11      1.0000 0.19405  0.41660  0.07060  Biso   1.000  O
  O12      1.0000 0.80233  0.41819  0.58975  Biso   1.000  O
  O13      1.0000 0.19424  0.41622  0.59074  Biso   1.000  O
  O14      1.0000 0.81842  0.79222  0.58956  Biso   1.000  O
  O15      1.0000 0.19404  0.93813  0.06982  Biso   1.000  O
  O16      1.0000 0.80311  0.93912  0.06784  Biso   1.000  O
  O17      1.0000 0.80409  0.93796  0.46055  Biso   1.000  O
  O18      1.0000 0.33994  0.79220  0.06884  Biso   1.000  O
  O19      1.0000 0.32424  0.41799  0.46075  Biso   1.000  O
  O20      1.0000 0.32306  0.41896  0.06824  Biso   1.000  O
  O21      1.0000 0.74980  0.36567  0.64228  Biso   1.000  O
  O22      1.0000 0.75178  0.99045  0.01651  Biso   1.000  O
  O23      1.0000 0.37576  0.36626  0.01553  Biso   1.000  O
  O24      1.0000 0.75078  0.36469  0.51307  Biso   1.000  O
  O25      1.0000 0.37556  0.36666  0.51208  Biso   1.000  O
  O26      1.0000 0.75138  0.99066  0.51326  Biso   1.000  O
  O27      1.0000 0.37577  0.86145  0.01631  Biso   1.000  O
  O28      1.0000 0.75001  0.86046  0.01828  Biso   1.000  O
  O29      1.0000 0.74902  0.86165  0.64227  Biso   1.000  O
  O30      1.0000 0.24657  0.99066  0.01729  Biso   1.000  O
  O31      1.0000 0.24557  0.36489  0.64207  Biso   1.000  O
  O32      1.0000 0.24676  0.36390  0.01789  Biso   1.000  O
  O33      1.0000 0.82946  0.44434  0.49851  Biso   1.000  O
  O34      1.0000 0.88716  0.50204  0.44080  Biso   1.000  O
  O35      1.0000 0.24870  0.83017  0.09597  Biso   1.000  O
  O36      1.0000 0.15760  0.77249  0.17035  Biso   1.000  O
  O37      1.0000 0.72365  0.33854  0.60431  Biso   1.000  O
  O38      1.0000 0.66596  0.28084  0.66201  Biso   1.000  O
  O39      1.0000 0.33781  0.95269  0.99016  Biso   1.000  O
  O40      1.0000 0.39551  0.01039  0.93246  Biso   1.000  O
  O41      1.0000 0.23220  0.44413  0.09577  Biso   1.000  O
  O42      1.0000 0.15808  0.50158  0.16988  Biso   1.000  O
  O43      1.0000 0.82926  0.84710  0.49870  Biso   1.000  O
  O44      1.0000 0.88669  0.77295  0.44128  Biso   1.000  O
  O45      1.0000 0.33761  0.33873  0.99036  Biso   1.000  O
  O46      1.0000 0.39504  0.28130  0.93293  Biso   1.000  O
  O47      1.0000 0.72385  0.95250  0.60411  Biso   1.000  O
  O48      1.0000 0.66643  0.00993  0.66154  Biso   1.000  O
  O49      1.0000 0.82907  0.84728  0.09557  Biso   1.000  O
  O50      1.0000 0.88649  0.77316  0.16969  Biso   1.000  O
  O51      1.0000 0.23239  0.44395  0.49890  Biso   1.000  O
  O52      1.0000 0.15827  0.50137  0.44147  Biso   1.000  O
  O53      1.0000 0.72405  0.95230  0.99056  Biso   1.000  O
  O54      1.0000 0.66663  0.00972  0.93313  Biso   1.000  O
  O55      1.0000 0.33741  0.33893  0.60392  Biso   1.000  O
  O56      1.0000 0.39484  0.28151  0.66134  Biso   1.000  O
  O57      1.0000 0.90781  0.52427  0.35797  Biso   1.000  O
  O58      1.0000 0.07560  0.52236  0.19258  Biso   1.000  O
  O59      1.0000 0.90822  0.68924  0.19222  Biso   1.000  O
  O60      1.0000 0.90938  0.52269  0.48077  Biso   1.000  O
  O61      1.0000 0.90747  0.69048  0.48027  Biso   1.000  O
  O62      1.0000 0.07436  0.52310  0.48112  Biso   1.000  O
  O63      1.0000 0.07477  0.81245  0.19100  Biso   1.000  O
  O64      1.0000 0.90938  0.81195  0.35880  Biso   1.000  O
  O65      1.0000 0.90902  0.81280  0.19142  Biso   1.000  O
  O66      1.0000 0.19757  0.68966  0.19258  Biso   1.000  O
  O67      1.0000 0.19707  0.52427  0.19067  Biso   1.000  O
  O68      1.0000 0.19792  0.52391  0.35756  Biso   1.000  O
  O69      1.0000 0.64531  0.25861  0.74484  Biso   1.000  O
  O70      1.0000 0.47752  0.26052  0.91024  Biso   1.000  O
  O71      1.0000 0.64489  0.09364  0.91059  Biso   1.000  O
  O72      1.0000 0.64373  0.26019  0.62205  Biso   1.000  O
  O73      1.0000 0.64564  0.09240  0.62254  Biso   1.000  O
  O74      1.0000 0.47875  0.25978  0.62169  Biso   1.000  O
  O75      1.0000 0.47834  0.97043  0.91181  Biso   1.000  O
  O76      1.0000 0.64373  0.97093  0.74402  Biso   1.000  O
  O77      1.0000 0.64409  0.97008  0.91140  Biso   1.000  O
  O78      1.0000 0.35555  0.09322  0.91024  Biso   1.000  O
  O79      1.0000 0.35604  0.25861  0.91215  Biso   1.000  O
  O80      1.0000 0.35519  0.25897  0.74526  Biso   1.000  O
  O81      1.0000 0.02238  0.63726  0.30558  Biso   1.000  O
  O82      1.0000 0.53073  0.14562  0.79724  Biso   1.000  O
  O83      1.0000 0.83915  0.71709  0.09218  Biso   1.000  O
  O84      1.0000 0.82568  0.97076  0.08896  Biso   1.000  O
  O85      1.0000 0.73067  0.06577  0.99395  Biso   1.000  O
  O86      1.0000 0.74414  0.81209  0.99717  Biso   1.000  O
  O87      1.0000 0.82690  0.96960  0.38524  Biso   1.000  O
  O88      1.0000 0.73053  0.06597  0.48161  Biso   1.000  O
  O89      1.0000 0.11874  0.43746  0.09341  Biso   1.000  O
  O90      1.0000 0.21511  0.34109  0.99704  Biso   1.000  O
  O91      1.0000 0.82376  0.44044  0.62140  Biso   1.000  O
  O92      1.0000 0.11892  0.43733  0.62238  Biso   1.000  O
  O93      1.0000 0.21492  0.06598  0.99586  Biso   1.000  O
  O94      1.0000 0.21393  0.34232  0.71739  Biso   1.000  O
  O95      1.0000 0.83928  0.71691  0.62120  Biso   1.000  O
  O96      1.0000 0.74291  0.81328  0.71758  Biso   1.000  O
  O97      1.0000 0.35470  0.44177  0.08909  Biso   1.000  O
  O98      1.0000 0.45108  0.34540  0.99272  Biso   1.000  O
  O99      1.0000 0.46779  0.81308  0.99407  Biso   1.000  O
  O100     1.0000 0.35588  0.44056  0.38542  Biso   1.000  O
  O101     1.0000 0.45089  0.34555  0.48043  Biso   1.000  O
  O102     1.0000 0.37159  0.71688  0.09026  Biso   1.000  O
  O103     1.0000 0.72936  0.34245  0.48142  Biso   1.000  O
  O104     1.0000 0.82555  0.43864  0.38522  Biso   1.000  O
  O105     1.0000 0.72756  0.34424  0.71760  Biso   1.000  O
  O106     1.0000 0.11872  0.96978  0.09206  Biso   1.000  O
