data_image0
_cell_length_a       18.1507
_cell_length_b       18.1507
_cell_length_c       18.1507
_cell_angle_alpha    60
_cell_angle_beta     60
_cell_angle_gamma    60

loop_
  _atom_site_label
  _atom_site_occupancy
  _atom_site_fract_x
  _atom_site_fract_y
  _atom_site_fract_z
  _atom_site_thermal_displace_type
  _atom_site_B_iso_or_equiv
  _atom_site_type_symbol
  Zn1      1.0000 0.29350  0.29350  0.29350  Biso   1.000  Zn
  Zn2      1.0000 0.29350  0.29350  0.11950  Biso   1.000  Zn
  Zn3      1.0000 0.29350  0.11950  0.29350  Biso   1.000  Zn
  Zn4      1.0000 0.11950  0.29350  0.29350  Biso   1.000  Zn
  Zn5      1.0000 0.70650  0.70650  0.70650  Biso   1.000  Zn
  Zn6      1.0000 0.70650  0.70650  0.88050  Biso   1.000  Zn
  Zn7      1.0000 0.88050  0.70650  0.70650  Biso   1.000  Zn
  Zn8      1.0000 0.70650  0.88050  0.70650  Biso   1.000  Zn
  H1       1.0000 0.45480  0.45480  0.15700  Biso   1.000  H
  H2       1.0000 0.45480  0.45480  0.93340  Biso   1.000  H
  H3       1.0000 0.15700  0.93340  0.45480  Biso   1.000  H
  H4       1.0000 0.93340  0.15700  0.45480  Biso   1.000  H
  H5       1.0000 0.45480  0.15700  0.93340  Biso   1.000  H
  H6       1.0000 0.45480  0.93340  0.15700  Biso   1.000  H
  H7       1.0000 0.15700  0.45480  0.45480  Biso   1.000  H
  H8       1.0000 0.93340  0.45480  0.45480  Biso   1.000  H
  H9       1.0000 0.45480  0.93340  0.45480  Biso   1.000  H
  H10      1.0000 0.45480  0.15700  0.45480  Biso   1.000  H
  H11      1.0000 0.15700  0.45480  0.93340  Biso   1.000  H
  H12      1.0000 0.93340  0.45480  0.15700  Biso   1.000  H
  H13      1.0000 0.54520  0.54520  0.84300  Biso   1.000  H
  H14      1.0000 0.54520  0.54520  0.06660  Biso   1.000  H
  H15      1.0000 0.06660  0.84300  0.54520  Biso   1.000  H
  H16      1.0000 0.84300  0.06660  0.54520  Biso   1.000  H
  H17      1.0000 0.84300  0.54520  0.06660  Biso   1.000  H
  H18      1.0000 0.06660  0.54520  0.84300  Biso   1.000  H
  H19      1.0000 0.54520  0.84300  0.54520  Biso   1.000  H
  H20      1.0000 0.54520  0.06660  0.54520  Biso   1.000  H
  H21      1.0000 0.06660  0.54520  0.54520  Biso   1.000  H
  H22      1.0000 0.84300  0.54520  0.54520  Biso   1.000  H
  H23      1.0000 0.54520  0.84300  0.06660  Biso   1.000  H
  H24      1.0000 0.54520  0.06660  0.84300  Biso   1.000  H
  C1       1.0000 0.47370  0.47370  0.09250  Biso   1.000  C
  C2       1.0000 0.47370  0.47370  0.96010  Biso   1.000  C
  C3       1.0000 0.09250  0.96010  0.47370  Biso   1.000  C
  C4       1.0000 0.96010  0.09250  0.47370  Biso   1.000  C
  C5       1.0000 0.47370  0.09250  0.96010  Biso   1.000  C
  C6       1.0000 0.47370  0.96010  0.09250  Biso   1.000  C
  C7       1.0000 0.09250  0.47370  0.47370  Biso   1.000  C
  C8       1.0000 0.96010  0.47370  0.47370  Biso   1.000  C
  C9       1.0000 0.47370  0.96010  0.47370  Biso   1.000  C
  C10      1.0000 0.47370  0.09250  0.47370  Biso   1.000  C
  C11      1.0000 0.09250  0.47370  0.96010  Biso   1.000  C
  C12      1.0000 0.96010  0.47370  0.09250  Biso   1.000  C
  C13      1.0000 0.52630  0.52630  0.90750  Biso   1.000  C
  C14      1.0000 0.52630  0.52630  0.03990  Biso   1.000  C
  C15      1.0000 0.03990  0.90750  0.52630  Biso   1.000  C
  C16      1.0000 0.90750  0.03990  0.52630  Biso   1.000  C
  C17      1.0000 0.90750  0.52630  0.03990  Biso   1.000  C
  C18      1.0000 0.03990  0.52630  0.90750  Biso   1.000  C
  C19      1.0000 0.52630  0.90750  0.52630  Biso   1.000  C
  C20      1.0000 0.52630  0.03990  0.52630  Biso   1.000  C
  C21      1.0000 0.03990  0.52630  0.52630  Biso   1.000  C
  C22      1.0000 0.90750  0.52630  0.52630  Biso   1.000  C
  C23      1.0000 0.52630  0.90750  0.03990  Biso   1.000  C
  C24      1.0000 0.52630  0.03990  0.90750  Biso   1.000  C
  C25      1.0000 0.38950  0.38950  0.11050  Biso   1.000  C
  C26      1.0000 0.44620  0.44620  0.05380  Biso   1.000  C
  C27      1.0000 0.11050  0.11050  0.38950  Biso   1.000  C
  C28      1.0000 0.05380  0.05380  0.44620  Biso   1.000  C
  C29      1.0000 0.38950  0.11050  0.11050  Biso   1.000  C
  C30      1.0000 0.44620  0.05380  0.05380  Biso   1.000  C
  C31      1.0000 0.11050  0.38950  0.38950  Biso   1.000  C
  C32      1.0000 0.05380  0.44620  0.44620  Biso   1.000  C
  C33      1.0000 0.38950  0.11050  0.38950  Biso   1.000  C
  C34      1.0000 0.44620  0.05380  0.44620  Biso   1.000  C
  C35      1.0000 0.11050  0.38950  0.11050  Biso   1.000  C
  C36      1.0000 0.05380  0.44620  0.05380  Biso   1.000  C
  C37      1.0000 0.61050  0.61050  0.88950  Biso   1.000  C
  C38      1.0000 0.55380  0.55380  0.94620  Biso   1.000  C
  C39      1.0000 0.88950  0.88950  0.61050  Biso   1.000  C
  C40      1.0000 0.94620  0.94620  0.55380  Biso   1.000  C
  C41      1.0000 0.88950  0.61050  0.88950  Biso   1.000  C
  C42      1.0000 0.94620  0.55380  0.94620  Biso   1.000  C
  C43      1.0000 0.61050  0.88950  0.61050  Biso   1.000  C
  C44      1.0000 0.55380  0.94620  0.55380  Biso   1.000  C
  C45      1.0000 0.88950  0.61050  0.61050  Biso   1.000  C
  C46      1.0000 0.94620  0.55380  0.55380  Biso   1.000  C
  C47      1.0000 0.61050  0.88950  0.88950  Biso   1.000  C
  C48      1.0000 0.55380  0.94620  0.94620  Biso   1.000  C
  O1       1.0000 0.25000  0.25000  0.25000  Biso   1.000  O
  O2       1.0000 0.75000  0.75000  0.75000  Biso   1.000  O
  O3       1.0000 0.36610  0.36610  0.19750  Biso   1.000  O
  O4       1.0000 0.36610  0.36610  0.07030  Biso   1.000  O
  O5       1.0000 0.19750  0.07030  0.36610  Biso   1.000  O
  O6       1.0000 0.07030  0.19750  0.36610  Biso   1.000  O
  O7       1.0000 0.36610  0.19750  0.07030  Biso   1.000  O
  O8       1.0000 0.36610  0.07030  0.19750  Biso   1.000  O
  O9       1.0000 0.19750  0.36610  0.36610  Biso   1.000  O
  O10      1.0000 0.07030  0.36610  0.36610  Biso   1.000  O
  O11      1.0000 0.36610  0.07030  0.36610  Biso   1.000  O
  O12      1.0000 0.36610  0.19750  0.36610  Biso   1.000  O
  O13      1.0000 0.19750  0.36610  0.07030  Biso   1.000  O
  O14      1.0000 0.07030  0.36610  0.19750  Biso   1.000  O
  O15      1.0000 0.63390  0.63390  0.80250  Biso   1.000  O
  O16      1.0000 0.63390  0.63390  0.92970  Biso   1.000  O
  O17      1.0000 0.92970  0.80250  0.63390  Biso   1.000  O
  O18      1.0000 0.80250  0.92970  0.63390  Biso   1.000  O
  O19      1.0000 0.80250  0.63390  0.92970  Biso   1.000  O
  O20      1.0000 0.92970  0.63390  0.80250  Biso   1.000  O
  O21      1.0000 0.63390  0.80250  0.63390  Biso   1.000  O
  O22      1.0000 0.63390  0.92970  0.63390  Biso   1.000  O
  O23      1.0000 0.92970  0.63390  0.63390  Biso   1.000  O
  O24      1.0000 0.80250  0.63390  0.63390  Biso   1.000  O
  O25      1.0000 0.63390  0.80250  0.92970  Biso   1.000  O
  O26      1.0000 0.63390  0.92970  0.80250  Biso   1.000  O
  Zn9      1.0000 0.54683  0.95855  0.71075  Biso   1.000  Zn
  Zn10     1.0000 0.54678  0.95859  0.88402  Biso   1.000  Zn
  Zn11     1.0000 0.54683  0.13187  0.71075  Biso   1.000  Zn
  Zn12     1.0000 0.72011  0.95860  0.71070  Biso   1.000  Zn
  Zn13     1.0000 0.13349  0.54530  0.29732  Biso   1.000  Zn
  Zn14     1.0000 0.13354  0.54525  0.12405  Biso   1.000  Zn
  Zn15     1.0000 0.13349  0.37198  0.29732  Biso   1.000  Zn
  Zn16     1.0000 0.96021  0.54525  0.29737  Biso   1.000  Zn
  C49      1.0000 0.36737  0.77813  0.91163  Biso   1.000  C
  C50      1.0000 0.36544  0.15967  0.53100  Biso   1.000  C
  C51      1.0000 0.74781  0.77751  0.53200  Biso   1.000  C
  C52      1.0000 0.36637  0.77913  0.04302  Biso   1.000  C
  C53      1.0000 0.74801  0.77712  0.04403  Biso   1.000  C
  C54      1.0000 0.36584  0.15948  0.04283  Biso   1.000  C
  C55      1.0000 0.74780  0.29095  0.53121  Biso   1.000  C
  C56      1.0000 0.36716  0.29196  0.52920  Biso   1.000  C
  C57      1.0000 0.36816  0.29078  0.91164  Biso   1.000  C
  C58      1.0000 0.87927  0.15946  0.53021  Biso   1.000  C
  C59      1.0000 0.88020  0.77892  0.91184  Biso   1.000  C
  C60      1.0000 0.87900  0.77991  0.52960  Biso   1.000  C
  C61      1.0000 0.31295  0.72571  0.09644  Biso   1.000  C
  C62      1.0000 0.31496  0.34416  0.47700  Biso   1.000  C
  C63      1.0000 0.93260  0.72631  0.47600  Biso   1.000  C
  C64      1.0000 0.31395  0.72472  0.96505  Biso   1.000  C
  C65      1.0000 0.93239  0.72673  0.96404  Biso   1.000  C
  C66      1.0000 0.31456  0.34437  0.96524  Biso   1.000  C
  C67      1.0000 0.93261  0.21298  0.47679  Biso   1.000  C
  C68      1.0000 0.31316  0.21197  0.47880  Biso   1.000  C
  C69      1.0000 0.31216  0.21318  0.09643  Biso   1.000  C
  C70      1.0000 0.80122  0.34437  0.47779  Biso   1.000  C
  C71      1.0000 0.80020  0.72492  0.09623  Biso   1.000  C
  C72      1.0000 0.80141  0.72391  0.47840  Biso   1.000  C
  C73      1.0000 0.39395  0.80572  0.95024  Biso   1.000  C
  C74      1.0000 0.45263  0.86439  0.89156  Biso   1.000  C
  C75      1.0000 0.78649  0.19806  0.55780  Biso   1.000  C
  C76      1.0000 0.72765  0.13941  0.61654  Biso   1.000  C
  C77      1.0000 0.28636  0.69813  0.05783  Biso   1.000  C
  C78      1.0000 0.22769  0.63945  0.11651  Biso   1.000  C
  C79      1.0000 0.89400  0.30576  0.45020  Biso   1.000  C
  C80      1.0000 0.95267  0.36444  0.39153  Biso   1.000  C
  C81      1.0000 0.78661  0.80550  0.55760  Biso   1.000  C
  C82      1.0000 0.72813  0.86392  0.61606  Biso   1.000  C
  C83      1.0000 0.39375  0.19838  0.95044  Biso   1.000  C
  C84      1.0000 0.45215  0.13988  0.89204  Biso   1.000  C
  C85      1.0000 0.89380  0.69832  0.45040  Biso   1.000  C
  C86      1.0000 0.95219  0.63993  0.39201  Biso   1.000  C
  C87      1.0000 0.28656  0.30557  0.05763  Biso   1.000  C
  C88      1.0000 0.22817  0.36396  0.11603  Biso   1.000  C
  C89      1.0000 0.39356  0.19857  0.55740  Biso   1.000  C
  C90      1.0000 0.45195  0.14009  0.61586  Biso   1.000  C
  C91      1.0000 0.78680  0.80532  0.95064  Biso   1.000  C
  C92      1.0000 0.72833  0.86371  0.89224  Biso   1.000  C
  C93      1.0000 0.28677  0.30536  0.45060  Biso   1.000  C
  C94      1.0000 0.22837  0.36376  0.39221  Biso   1.000  C
  C95      1.0000 0.89360  0.69853  0.05743  Biso   1.000  C
  C96      1.0000 0.95199  0.64013  0.11583  Biso   1.000  C
  O27      1.0000 0.47363  0.88699  0.80733  Biso   1.000  O
  O28      1.0000 0.64425  0.88506  0.63914  Biso   1.000  O
  O29      1.0000 0.47405  0.05476  0.63878  Biso   1.000  O
  O30      1.0000 0.47523  0.88539  0.93220  Biso   1.000  O
  O31      1.0000 0.47329  0.05601  0.93170  Biso   1.000  O
  O32      1.0000 0.64299  0.88581  0.93256  Biso   1.000  O
  O33      1.0000 0.64341  0.18004  0.63754  Biso   1.000  O
  O34      1.0000 0.47523  0.17954  0.80817  Biso   1.000  O
  O35      1.0000 0.47487  0.18040  0.63796  Biso   1.000  O
  O36      1.0000 0.76828  0.05518  0.63914  Biso   1.000  O
  O37      1.0000 0.76778  0.88700  0.63720  Biso   1.000  O
  O38      1.0000 0.76864  0.88663  0.80691  Biso   1.000  O
  O39      1.0000 0.20669  0.61685  0.20074  Biso   1.000  O
  O40      1.0000 0.03607  0.61879  0.36893  Biso   1.000  O
  O41      1.0000 0.20627  0.44909  0.36929  Biso   1.000  O
  O42      1.0000 0.20509  0.61846  0.07587  Biso   1.000  O
  O43      1.0000 0.20703  0.44783  0.07637  Biso   1.000  O
  O44      1.0000 0.03732  0.61804  0.07551  Biso   1.000  O
  O45      1.0000 0.03691  0.32380  0.37053  Biso   1.000  O
  O46      1.0000 0.20509  0.32431  0.19990  Biso   1.000  O
  O47      1.0000 0.20545  0.32344  0.37011  Biso   1.000  O
  O48      1.0000 0.91204  0.44867  0.36893  Biso   1.000  O
  O49      1.0000 0.91254  0.61685  0.37087  Biso   1.000  O
  O50      1.0000 0.91168  0.61721  0.20116  Biso   1.000  O
  O51      1.0000 0.59014  0.00190  0.75405  Biso   1.000  O
  O52      1.0000 0.09018  0.50194  0.25402  Biso   1.000  O
  H25      1.0000 0.38691  0.08307  0.55395  Biso   1.000  H
  H26      1.0000 0.39011  0.32414  0.55067  Biso   1.000  H
  H27      1.0000 0.29350  0.42075  0.45405  Biso   1.000  H
  H28      1.0000 0.29030  0.17968  0.45733  Biso   1.000  H
  H29      1.0000 0.39135  0.32295  0.83506  Biso   1.000  H
  H30      1.0000 0.29335  0.42095  0.93306  Biso   1.000  H
  H31      1.0000 0.67123  0.79871  0.55520  Biso   1.000  H
  H32      1.0000 0.76923  0.70072  0.45719  Biso   1.000  H
  H33      1.0000 0.38816  0.80175  0.07521  Biso   1.000  H
  H34      1.0000 0.67141  0.79859  0.07621  Biso   1.000  H
  H35      1.0000 0.76903  0.42096  0.45600  Biso   1.000  H
  H36      1.0000 0.76803  0.70197  0.17282  Biso   1.000  H
  H37      1.0000 0.38705  0.08289  0.07501  Biso   1.000  H
  H38      1.0000 0.28905  0.18089  0.17301  Biso   1.000  H
  H39      1.0000 0.91118  0.80310  0.55081  Biso   1.000  H
  H40      1.0000 0.00918  0.70511  0.45280  Biso   1.000  H
  H41      1.0000 0.00928  0.18068  0.45417  Biso   1.000  H
  H42      1.0000 0.91237  0.80187  0.83525  Biso   1.000  H
  H43      1.0000 0.00899  0.70526  0.93186  Biso   1.000  H
  H44      1.0000 0.91146  0.08286  0.55200  Biso   1.000  H
  H45      1.0000 0.29216  0.70210  0.93286  Biso   1.000  H
  H46      1.0000 0.38998  0.79992  0.83504  Biso   1.000  H
  H47      1.0000 0.29033  0.70392  0.17303  Biso   1.000  H
  H48      1.0000 0.67121  0.32314  0.55383  Biso   1.000  H
