data_image0
_cell_length_a       18.1424
_cell_length_b       18.1424
_cell_length_c       18.1424
_cell_angle_alpha    60
_cell_angle_beta     60
_cell_angle_gamma    60

loop_
  _atom_site_label
  _atom_site_occupancy
  _atom_site_fract_x
  _atom_site_fract_y
  _atom_site_fract_z
  _atom_site_thermal_displace_type
  _atom_site_B_iso_or_equiv
  _atom_site_type_symbol
  C1       1.0000 0.79369  0.79368  0.61895  Biso   1.000  C
  C2       1.0000 0.79369  0.79368  0.79368  Biso   1.000  C
  C3       1.0000 0.61896  0.79368  0.79368  Biso   1.000  C
  C4       1.0000 0.79369  0.61895  0.79368  Biso   1.000  C
  C5       1.0000 0.20631  0.20632  0.38105  Biso   1.000  C
  C6       1.0000 0.20631  0.20632  0.20632  Biso   1.000  C
  C7       1.0000 0.20631  0.38105  0.20632  Biso   1.000  C
  C8       1.0000 0.38104  0.20632  0.20632  Biso   1.000  C
  C9       1.0000 0.65590  0.95550  0.43310  Biso   1.000  C
  C10      1.0000 0.95550  0.65590  0.95550  Biso   1.000  C
  C11      1.0000 0.43310  0.95550  0.65590  Biso   1.000  C
  C12      1.0000 0.95550  0.43310  0.95550  Biso   1.000  C
  C13      1.0000 0.65590  0.43310  0.95550  Biso   1.000  C
  C14      1.0000 0.95550  0.95550  0.43310  Biso   1.000  C
  C15      1.0000 0.43310  0.65590  0.95550  Biso   1.000  C
  C16      1.0000 0.95550  0.95550  0.65590  Biso   1.000  C
  C17      1.0000 0.65590  0.95550  0.95550  Biso   1.000  C
  C18      1.0000 0.95550  0.43310  0.65590  Biso   1.000  C
  C19      1.0000 0.43310  0.95550  0.95550  Biso   1.000  C
  C20      1.0000 0.95550  0.65590  0.43310  Biso   1.000  C
  C21      1.0000 0.04450  0.34410  0.56690  Biso   1.000  C
  C22      1.0000 0.34410  0.04450  0.04450  Biso   1.000  C
  C23      1.0000 0.04450  0.56690  0.34410  Biso   1.000  C
  C24      1.0000 0.56690  0.04450  0.04450  Biso   1.000  C
  C25      1.0000 0.56690  0.34410  0.04450  Biso   1.000  C
  C26      1.0000 0.04450  0.04450  0.56690  Biso   1.000  C
  C27      1.0000 0.34410  0.56690  0.04450  Biso   1.000  C
  C28      1.0000 0.04450  0.04450  0.34410  Biso   1.000  C
  C29      1.0000 0.04450  0.34410  0.04450  Biso   1.000  C
  C30      1.0000 0.56690  0.04450  0.34410  Biso   1.000  C
  C31      1.0000 0.04450  0.56690  0.04450  Biso   1.000  C
  C32      1.0000 0.34410  0.04450  0.56690  Biso   1.000  C
  C33      1.0000 0.59211  0.97397  0.45995  Biso   1.000  C
  C34      1.0000 0.97397  0.59211  0.97397  Biso   1.000  C
  C35      1.0000 0.45995  0.97397  0.59211  Biso   1.000  C
  C36      1.0000 0.97397  0.45995  0.97397  Biso   1.000  C
  C37      1.0000 0.59211  0.45995  0.97397  Biso   1.000  C
  C38      1.0000 0.97397  0.97397  0.45995  Biso   1.000  C
  C39      1.0000 0.45995  0.59211  0.97397  Biso   1.000  C
  C40      1.0000 0.97397  0.97397  0.59211  Biso   1.000  C
  C41      1.0000 0.59211  0.97397  0.97397  Biso   1.000  C
  C42      1.0000 0.97397  0.45995  0.59211  Biso   1.000  C
  C43      1.0000 0.45995  0.97397  0.97397  Biso   1.000  C
  C44      1.0000 0.97397  0.59211  0.45995  Biso   1.000  C
  C45      1.0000 0.02603  0.40789  0.54005  Biso   1.000  C
  C46      1.0000 0.40789  0.02603  0.02603  Biso   1.000  C
  C47      1.0000 0.02603  0.54005  0.40789  Biso   1.000  C
  C48      1.0000 0.54005  0.02603  0.02603  Biso   1.000  C
  C49      1.0000 0.54005  0.40789  0.02603  Biso   1.000  C
  C50      1.0000 0.02603  0.02603  0.54005  Biso   1.000  C
  C51      1.0000 0.40789  0.54005  0.02603  Biso   1.000  C
  C52      1.0000 0.02603  0.02603  0.40789  Biso   1.000  C
  C53      1.0000 0.02603  0.40789  0.02603  Biso   1.000  C
  C54      1.0000 0.54005  0.02603  0.40789  Biso   1.000  C
  C55      1.0000 0.02603  0.54005  0.02603  Biso   1.000  C
  C56      1.0000 0.40789  0.02603  0.54005  Biso   1.000  C
  C57      1.0000 0.55320  0.94680  0.55320  Biso   1.000  C
  C58      1.0000 0.61160  0.88840  0.61160  Biso   1.000  C
  C59      1.0000 0.94680  0.55320  0.94680  Biso   1.000  C
  C60      1.0000 0.88840  0.61160  0.88840  Biso   1.000  C
  C61      1.0000 0.55320  0.55320  0.94680  Biso   1.000  C
  C62      1.0000 0.61160  0.61160  0.88840  Biso   1.000  C
  C63      1.0000 0.94680  0.94680  0.55320  Biso   1.000  C
  C64      1.0000 0.88840  0.88840  0.61160  Biso   1.000  C
  C65      1.0000 0.55320  0.94680  0.94680  Biso   1.000  C
  C66      1.0000 0.61160  0.88840  0.88840  Biso   1.000  C
  C67      1.0000 0.94680  0.55320  0.55320  Biso   1.000  C
  C68      1.0000 0.88840  0.61160  0.61160  Biso   1.000  C
  C69      1.0000 0.05320  0.44680  0.44680  Biso   1.000  C
  C70      1.0000 0.11160  0.38840  0.38840  Biso   1.000  C
  C71      1.0000 0.44680  0.05320  0.05320  Biso   1.000  C
  C72      1.0000 0.38840  0.11160  0.11160  Biso   1.000  C
  C73      1.0000 0.44680  0.44680  0.05320  Biso   1.000  C
  C74      1.0000 0.38840  0.38840  0.11160  Biso   1.000  C
  C75      1.0000 0.05320  0.05320  0.44680  Biso   1.000  C
  C76      1.0000 0.11160  0.11160  0.38840  Biso   1.000  C
  C77      1.0000 0.05320  0.44680  0.05320  Biso   1.000  C
  C78      1.0000 0.11160  0.38840  0.11160  Biso   1.000  C
  C79      1.0000 0.44680  0.05320  0.44680  Biso   1.000  C
  C80      1.0000 0.38840  0.11160  0.38840  Biso   1.000  C
  C81      1.0000 0.75000  0.75000  0.75000  Biso   1.000  C
  C82      1.0000 0.25000  0.25000  0.25000  Biso   1.000  C
  C83      1.0000 0.69809  0.86635  0.56921  Biso   1.000  C
  C84      1.0000 0.86635  0.69809  0.86635  Biso   1.000  C
  C85      1.0000 0.56921  0.86635  0.69809  Biso   1.000  C
  C86      1.0000 0.86635  0.56921  0.86635  Biso   1.000  C
  C87      1.0000 0.69809  0.56921  0.86635  Biso   1.000  C
  C88      1.0000 0.86635  0.86635  0.56921  Biso   1.000  C
  C89      1.0000 0.56921  0.69809  0.86635  Biso   1.000  C
  C90      1.0000 0.86635  0.86635  0.69809  Biso   1.000  C
  C91      1.0000 0.69809  0.86635  0.86635  Biso   1.000  C
  C92      1.0000 0.86635  0.56921  0.69809  Biso   1.000  C
  C93      1.0000 0.56921  0.86635  0.86635  Biso   1.000  C
  C94      1.0000 0.86635  0.69809  0.56921  Biso   1.000  C
  C95      1.0000 0.13365  0.30191  0.43079  Biso   1.000  C
  C96      1.0000 0.30191  0.13365  0.13365  Biso   1.000  C
  C97      1.0000 0.13365  0.43079  0.30191  Biso   1.000  C
  C98      1.0000 0.43079  0.13365  0.13365  Biso   1.000  C
  C99      1.0000 0.43079  0.30191  0.13365  Biso   1.000  C
  C100     1.0000 0.13365  0.13365  0.43079  Biso   1.000  C
  C101     1.0000 0.30191  0.43079  0.13365  Biso   1.000  C
  C102     1.0000 0.13365  0.13365  0.30191  Biso   1.000  C
  C103     1.0000 0.13365  0.30191  0.13365  Biso   1.000  C
  C104     1.0000 0.43079  0.13365  0.30191  Biso   1.000  C
  C105     1.0000 0.13365  0.43079  0.13365  Biso   1.000  C
  C106     1.0000 0.30191  0.13365  0.43079  Biso   1.000  C
  O1       1.0000 0.49390  0.99967  0.77710  Biso   1.000  O
  O2       1.0000 0.49385  0.99971  0.95054  Biso   1.000  O
  O3       1.0000 0.49390  0.17315  0.77710  Biso   1.000  O
  O4       1.0000 0.66733  0.99972  0.77705  Biso   1.000  O
  O5       1.0000 0.08018  0.58604  0.36422  Biso   1.000  O
  O6       1.0000 0.08023  0.58600  0.19078  Biso   1.000  O
  O7       1.0000 0.08018  0.41256  0.36422  Biso   1.000  O
  O8       1.0000 0.90674  0.58599  0.36427  Biso   1.000  O
  O9       1.0000 0.31427  0.81909  0.97817  Biso   1.000  O
  O10      1.0000 0.31143  0.20097  0.59810  Biso   1.000  O
  O11      1.0000 0.69415  0.81846  0.59911  Biso   1.000  O
  O12      1.0000 0.31327  0.82009  0.10968  Biso   1.000  O
  O13      1.0000 0.69434  0.81807  0.11069  Biso   1.000  O
  O14      1.0000 0.31182  0.20078  0.10949  Biso   1.000  O
  O15      1.0000 0.69414  0.33146  0.59831  Biso   1.000  O
  O16      1.0000 0.31406  0.33247  0.59630  Biso   1.000  O
  O17      1.0000 0.31506  0.33129  0.97818  Biso   1.000  O
  O18      1.0000 0.82481  0.20076  0.59731  Biso   1.000  O
  O19      1.0000 0.82665  0.81988  0.97838  Biso   1.000  O
  O20      1.0000 0.82546  0.82087  0.59670  Biso   1.000  O
  O21      1.0000 0.25981  0.76662  0.16315  Biso   1.000  O
  O22      1.0000 0.26182  0.38472  0.54406  Biso   1.000  O
  O23      1.0000 0.87910  0.76722  0.54306  Biso   1.000  O
  O24      1.0000 0.26081  0.76562  0.03164  Biso   1.000  O
  O25      1.0000 0.87890  0.76764  0.03063  Biso   1.000  O
  O26      1.0000 0.26142  0.38493  0.03183  Biso   1.000  O
  O27      1.0000 0.87911  0.25342  0.54385  Biso   1.000  O
  O28      1.0000 0.26002  0.25241  0.54586  Biso   1.000  O
  O29      1.0000 0.25901  0.25362  0.16314  Biso   1.000  O
  O30      1.0000 0.74760  0.38493  0.54485  Biso   1.000  O
  O31      1.0000 0.74659  0.76583  0.16294  Biso   1.000  O
  O32      1.0000 0.74779  0.76482  0.54546  Biso   1.000  O
  O33      1.0000 0.34088  0.84670  0.01682  Biso   1.000  O
  O34      1.0000 0.39961  0.90543  0.95809  Biso   1.000  O
  O35      1.0000 0.73194  0.23940  0.62493  Biso   1.000  O
  O36      1.0000 0.67488  0.18070  0.68281  Biso   1.000  O
  O37      1.0000 0.23319  0.73901  0.12451  Biso   1.000  O
  O38      1.0000 0.17446  0.68028  0.18324  Biso   1.000  O
  O39      1.0000 0.84047  0.34629  0.51724  Biso   1.000  O
  O40      1.0000 0.89920  0.40501  0.45851  Biso   1.000  O
  O41      1.0000 0.73298  0.84649  0.62473  Biso   1.000  O
  O42      1.0000 0.67536  0.90495  0.68233  Biso   1.000  O
  O43      1.0000 0.34068  0.23881  0.01702  Biso   1.000  O
  O44      1.0000 0.39913  0.18117  0.95857  Biso   1.000  O
  O45      1.0000 0.84027  0.73920  0.51744  Biso   1.000  O
  O46      1.0000 0.89872  0.68076  0.45899  Biso   1.000  O
  O47      1.0000 0.23339  0.34610  0.12431  Biso   1.000  O
  O48      1.0000 0.17494  0.40454  0.18275  Biso   1.000  O
  O49      1.0000 0.34049  0.23900  0.62453  Biso   1.000  O
  O50      1.0000 0.39893  0.18138  0.68213  Biso   1.000  O
  O51      1.0000 0.73317  0.84630  0.01722  Biso   1.000  O
  O52      1.0000 0.67556  0.90475  0.95877  Biso   1.000  O
  O53      1.0000 0.23360  0.34589  0.51764  Biso   1.000  O
  O54      1.0000 0.17515  0.40433  0.45919  Biso   1.000  O
  O55      1.0000 0.84006  0.73941  0.12411  Biso   1.000  O
  O56      1.0000 0.89851  0.68096  0.18255  Biso   1.000  O
  O57      1.0000 0.42063  0.92805  0.87377  Biso   1.000  O
  O58      1.0000 0.59141  0.92611  0.70543  Biso   1.000  O
  O59      1.0000 0.42105  0.09597  0.70507  Biso   1.000  O
  O60      1.0000 0.42223  0.92644  0.99876  Biso   1.000  O
  O61      1.0000 0.42029  0.09722  0.99826  Biso   1.000  O
  O62      1.0000 0.59015  0.92686  0.99912  Biso   1.000  O
  O63      1.0000 0.59057  0.22137  0.70383  Biso   1.000  O
  O64      1.0000 0.42223  0.22086  0.87462  Biso   1.000  O
  O65      1.0000 0.42187  0.22173  0.70425  Biso   1.000  O
  O66      1.0000 0.71555  0.09639  0.70543  Biso   1.000  O
  O67      1.0000 0.71505  0.92805  0.70349  Biso   1.000  O
  O68      1.0000 0.71591  0.92769  0.87335  Biso   1.000  O
  O69      1.0000 0.15345  0.65766  0.26755  Biso   1.000  O
  O70      1.0000 0.98267  0.65960  0.43589  Biso   1.000  O
  O71      1.0000 0.15303  0.48974  0.43625  Biso   1.000  O
  O72      1.0000 0.15184  0.65927  0.14256  Biso   1.000  O
  O73      1.0000 0.15379  0.48849  0.14306  Biso   1.000  O
  O74      1.0000 0.98392  0.65885  0.14220  Biso   1.000  O
  O75      1.0000 0.98351  0.36434  0.43749  Biso   1.000  O
  O76      1.0000 0.15185  0.36485  0.26671  Biso   1.000  O
  O77      1.0000 0.15221  0.36398  0.43707  Biso   1.000  O
  O78      1.0000 0.85852  0.48932  0.43589  Biso   1.000  O
  O79      1.0000 0.85902  0.65766  0.43783  Biso   1.000  O
  O80      1.0000 0.85816  0.65802  0.26797  Biso   1.000  O
  O81      1.0000 0.53724  0.04306  0.82045  Biso   1.000  O
  O82      1.0000 0.03683  0.54265  0.32087  Biso   1.000  O
  O83      1.0000 0.33292  0.12431  0.62107  Biso   1.000  O
  O84      1.0000 0.33703  0.36468  0.61779  Biso   1.000  O
  O85      1.0000 0.24033  0.46138  0.52109  Biso   1.000  O
  O86      1.0000 0.23621  0.22101  0.52437  Biso   1.000  O
  O87      1.0000 0.33828  0.36349  0.90153  Biso   1.000  O
  O88      1.0000 0.24019  0.46158  0.99962  Biso   1.000  O
  O89      1.0000 0.61749  0.83969  0.62232  Biso   1.000  O
  O90      1.0000 0.71558  0.74160  0.52423  Biso   1.000  O
  O91      1.0000 0.33508  0.84272  0.14190  Biso   1.000  O
  O92      1.0000 0.61768  0.83956  0.14290  Biso   1.000  O
  O93      1.0000 0.71538  0.46159  0.52304  Biso   1.000  O
  O94      1.0000 0.71438  0.74286  0.23960  Biso   1.000  O
  O95      1.0000 0.33305  0.12413  0.14170  Biso   1.000  O
  O96      1.0000 0.23496  0.22222  0.23979  Biso   1.000  O
  O97      1.0000 0.85766  0.84408  0.61793  Biso   1.000  O
  O98      1.0000 0.95575  0.74600  0.51984  Biso   1.000  O
  O99      1.0000 0.95494  0.22201  0.52121  Biso   1.000  O
  O100     1.0000 0.85886  0.84285  0.90172  Biso   1.000  O
  O101     1.0000 0.95556  0.74615  0.99842  Biso   1.000  O
  O102     1.0000 0.85703  0.12410  0.61912  Biso   1.000  O
  O103     1.0000 0.23900  0.74299  0.99942  Biso   1.000  O
  O104     1.0000 0.33691  0.84090  0.90151  Biso   1.000  O
  O105     1.0000 0.23717  0.74481  0.23981  Biso   1.000  O
  O106     1.0000 0.61747  0.36368  0.62095  Biso   1.000  O
