data_image0
_cell_length_a       18.3014
_cell_length_b       18.3014
_cell_length_c       18.3014
_cell_angle_alpha    60
_cell_angle_beta     60
_cell_angle_gamma    60

loop_
  _atom_site_label
  _atom_site_occupancy
  _atom_site_fract_x
  _atom_site_fract_y
  _atom_site_fract_z
  _atom_site_thermal_displace_type
  _atom_site_B_iso_or_equiv
  _atom_site_type_symbol
  Zn1      1.0000 0.20640  0.38080  0.20640  Biso   1.000  Zn
  Zn2      1.0000 0.38080  0.20640  0.20640  Biso   1.000  Zn
  Zn3      1.0000 0.20640  0.20640  0.20640  Biso   1.000  Zn
  Zn4      1.0000 0.20640  0.20640  0.38080  Biso   1.000  Zn
  Zn5      1.0000 0.61920  0.79360  0.79360  Biso   1.000  Zn
  Zn6      1.0000 0.79360  0.61920  0.79360  Biso   1.000  Zn
  Zn7      1.0000 0.79360  0.79360  0.79360  Biso   1.000  Zn
  Zn8      1.0000 0.79360  0.79360  0.61920  Biso   1.000  Zn
  H1       1.0000 0.04850  0.56570  0.04850  Biso   1.000  H
  H2       1.0000 0.56570  0.04850  0.33730  Biso   1.000  H
  H3       1.0000 0.04850  0.33730  0.04850  Biso   1.000  H
  H4       1.0000 0.33730  0.04850  0.56570  Biso   1.000  H
  H5       1.0000 0.04850  0.04850  0.33730  Biso   1.000  H
  H6       1.0000 0.56570  0.33730  0.04850  Biso   1.000  H
  H7       1.0000 0.04850  0.04850  0.56570  Biso   1.000  H
  H8       1.0000 0.33730  0.56570  0.04850  Biso   1.000  H
  H9       1.0000 0.04850  0.33730  0.56570  Biso   1.000  H
  H10      1.0000 0.56570  0.04850  0.04850  Biso   1.000  H
  H11      1.0000 0.04850  0.56570  0.33730  Biso   1.000  H
  H12      1.0000 0.33730  0.04850  0.04850  Biso   1.000  H
  H13      1.0000 0.43430  0.95150  0.95150  Biso   1.000  H
  H14      1.0000 0.95150  0.43430  0.66270  Biso   1.000  H
  H15      1.0000 0.66270  0.95150  0.95150  Biso   1.000  H
  H16      1.0000 0.95150  0.66270  0.43430  Biso   1.000  H
  H17      1.0000 0.95150  0.95150  0.66270  Biso   1.000  H
  H18      1.0000 0.66270  0.43430  0.95150  Biso   1.000  H
  H19      1.0000 0.95150  0.95150  0.43430  Biso   1.000  H
  H20      1.0000 0.43430  0.66270  0.95150  Biso   1.000  H
  H21      1.0000 0.66270  0.95150  0.43430  Biso   1.000  H
  H22      1.0000 0.95150  0.43430  0.95150  Biso   1.000  H
  H23      1.0000 0.43430  0.95150  0.66270  Biso   1.000  H
  H24      1.0000 0.95150  0.66270  0.95150  Biso   1.000  H
  C1       1.0000 0.02640  0.53920  0.02640  Biso   1.000  C
  C2       1.0000 0.53920  0.02640  0.40800  Biso   1.000  C
  C3       1.0000 0.02640  0.40800  0.02640  Biso   1.000  C
  C4       1.0000 0.40800  0.02640  0.53920  Biso   1.000  C
  C5       1.0000 0.02640  0.02640  0.40800  Biso   1.000  C
  C6       1.0000 0.53920  0.40800  0.02640  Biso   1.000  C
  C7       1.0000 0.02640  0.02640  0.53920  Biso   1.000  C
  C8       1.0000 0.40800  0.53920  0.02640  Biso   1.000  C
  C9       1.0000 0.02640  0.40800  0.53920  Biso   1.000  C
  C10      1.0000 0.53920  0.02640  0.02640  Biso   1.000  C
  C11      1.0000 0.02640  0.53920  0.40800  Biso   1.000  C
  C12      1.0000 0.40800  0.02640  0.02640  Biso   1.000  C
  C13      1.0000 0.46080  0.97360  0.97360  Biso   1.000  C
  C14      1.0000 0.97360  0.46080  0.59200  Biso   1.000  C
  C15      1.0000 0.59200  0.97360  0.97360  Biso   1.000  C
  C16      1.0000 0.97360  0.59200  0.46080  Biso   1.000  C
  C17      1.0000 0.97360  0.97360  0.59200  Biso   1.000  C
  C18      1.0000 0.59200  0.46080  0.97360  Biso   1.000  C
  C19      1.0000 0.97360  0.97360  0.46080  Biso   1.000  C
  C20      1.0000 0.46080  0.59200  0.97360  Biso   1.000  C
  C21      1.0000 0.59200  0.97360  0.46080  Biso   1.000  C
  C22      1.0000 0.97360  0.46080  0.97360  Biso   1.000  C
  C23      1.0000 0.46080  0.97360  0.59200  Biso   1.000  C
  C24      1.0000 0.97360  0.59200  0.97360  Biso   1.000  C
  C25      1.0000 0.11050  0.38950  0.11050  Biso   1.000  C
  C26      1.0000 0.05430  0.44570  0.05430  Biso   1.000  C
  C27      1.0000 0.38950  0.11050  0.38950  Biso   1.000  C
  C28      1.0000 0.44570  0.05430  0.44570  Biso   1.000  C
  C29      1.0000 0.11050  0.11050  0.38950  Biso   1.000  C
  C30      1.0000 0.05430  0.05430  0.44570  Biso   1.000  C
  C31      1.0000 0.38950  0.38950  0.11050  Biso   1.000  C
  C32      1.0000 0.44570  0.44570  0.05430  Biso   1.000  C
  C33      1.0000 0.11050  0.38950  0.38950  Biso   1.000  C
  C34      1.0000 0.05430  0.44570  0.44570  Biso   1.000  C
  C35      1.0000 0.38950  0.11050  0.11050  Biso   1.000  C
  C36      1.0000 0.44570  0.05430  0.05430  Biso   1.000  C
  C37      1.0000 0.61050  0.88950  0.88950  Biso   1.000  C
  C38      1.0000 0.55430  0.94570  0.94570  Biso   1.000  C
  C39      1.0000 0.88950  0.61050  0.61050  Biso   1.000  C
  C40      1.0000 0.94570  0.55430  0.55430  Biso   1.000  C
  C41      1.0000 0.88950  0.88950  0.61050  Biso   1.000  C
  C42      1.0000 0.94570  0.94570  0.55430  Biso   1.000  C
  C43      1.0000 0.61050  0.61050  0.88950  Biso   1.000  C
  C44      1.0000 0.55430  0.55430  0.94570  Biso   1.000  C
  C45      1.0000 0.61050  0.88950  0.61050  Biso   1.000  C
  C46      1.0000 0.55430  0.94570  0.55430  Biso   1.000  C
  C47      1.0000 0.88950  0.61050  0.88950  Biso   1.000  C
  C48      1.0000 0.94570  0.55430  0.94570  Biso   1.000  C
  O1       1.0000 0.25000  0.25000  0.25000  Biso   1.000  O
  O2       1.0000 0.75000  0.75000  0.75000  Biso   1.000  O
  O3       1.0000 0.13330  0.42830  0.13330  Biso   1.000  O
  O4       1.0000 0.42830  0.13330  0.30510  Biso   1.000  O
  O5       1.0000 0.13330  0.30510  0.13330  Biso   1.000  O
  O6       1.0000 0.30510  0.13330  0.42830  Biso   1.000  O
  O7       1.0000 0.13330  0.13330  0.30510  Biso   1.000  O
  O8       1.0000 0.42830  0.30510  0.13330  Biso   1.000  O
  O9       1.0000 0.13330  0.13330  0.42830  Biso   1.000  O
  O10      1.0000 0.30510  0.42830  0.13330  Biso   1.000  O
  O11      1.0000 0.13330  0.30510  0.42830  Biso   1.000  O
  O12      1.0000 0.42830  0.13330  0.13330  Biso   1.000  O
  O13      1.0000 0.13330  0.42830  0.30510  Biso   1.000  O
  O14      1.0000 0.30510  0.13330  0.13330  Biso   1.000  O
  O15      1.0000 0.57170  0.86670  0.86670  Biso   1.000  O
  O16      1.0000 0.86670  0.57170  0.69490  Biso   1.000  O
  O17      1.0000 0.69490  0.86670  0.86670  Biso   1.000  O
  O18      1.0000 0.86670  0.69490  0.57170  Biso   1.000  O
  O19      1.0000 0.86670  0.86670  0.69490  Biso   1.000  O
  O20      1.0000 0.69490  0.57170  0.86670  Biso   1.000  O
  O21      1.0000 0.86670  0.86670  0.57170  Biso   1.000  O
  O22      1.0000 0.57170  0.69490  0.86670  Biso   1.000  O
  O23      1.0000 0.69490  0.86670  0.57170  Biso   1.000  O
  O24      1.0000 0.86670  0.57170  0.86670  Biso   1.000  O
  O25      1.0000 0.57170  0.86670  0.69490  Biso   1.000  O
  O26      1.0000 0.86670  0.69490  0.86670  Biso   1.000  O
  Zn9      1.0000 0.05204  0.49264  0.19646  Biso   1.000  Zn
  Zn10     1.0000 0.05200  0.49269  0.36690  Biso   1.000  Zn
  Zn11     1.0000 0.05204  0.66312  0.19646  Biso   1.000  Zn
  Zn12     1.0000 0.22248  0.49269  0.19641  Biso   1.000  Zn
  Zn13     1.0000 0.64548  0.08617  0.77342  Biso   1.000  Zn
  Zn14     1.0000 0.64553  0.08613  0.60299  Biso   1.000  Zn
  Zn15     1.0000 0.64548  0.91569  0.77342  Biso   1.000  Zn
  Zn16     1.0000 0.47505  0.08612  0.77347  Biso   1.000  Zn
  C49      1.0000 0.87552  0.31519  0.39405  Biso   1.000  C
  C50      1.0000 0.89003  0.69046  0.00326  Biso   1.000  C
  C51      1.0000 0.26613  0.31457  0.00424  Biso   1.000  C
  C52      1.0000 0.87454  0.31617  0.52329  Biso   1.000  C
  C53      1.0000 0.26632  0.31419  0.52428  Biso   1.000  C
  C54      1.0000 0.89042  0.69028  0.52310  Biso   1.000  C
  C55      1.0000 0.26612  0.83600  0.00347  Biso   1.000  C
  C56      1.0000 0.87532  0.83699  0.00149  Biso   1.000  C
  C57      1.0000 0.87630  0.83582  0.39406  Biso   1.000  C
  C58      1.0000 0.41183  0.69026  0.00248  Biso   1.000  C
  C59      1.0000 0.39634  0.31596  0.39426  Biso   1.000  C
  C60      1.0000 0.39517  0.31693  0.00188  Biso   1.000  C
  C61      1.0000 0.82200  0.26363  0.57583  Biso   1.000  C
  C62      1.0000 0.82398  0.88833  0.95015  Biso   1.000  C
  C63      1.0000 0.44788  0.26422  0.94917  Biso   1.000  C
  C64      1.0000 0.82299  0.26265  0.44659  Biso   1.000  C
  C65      1.0000 0.44768  0.26462  0.44560  Biso   1.000  C
  C66      1.0000 0.82358  0.88854  0.44678  Biso   1.000  C
  C67      1.0000 0.44789  0.75930  0.94994  Biso   1.000  C
  C68      1.0000 0.82221  0.75831  0.95192  Biso   1.000  C
  C69      1.0000 0.82123  0.75950  0.57582  Biso   1.000  C
  C70      1.0000 0.31866  0.88854  0.95093  Biso   1.000  C
  C71      1.0000 0.31766  0.26285  0.57562  Biso   1.000  C
  C72      1.0000 0.31885  0.26186  0.95153  Biso   1.000  C
  C73      1.0000 0.90168  0.34232  0.43203  Biso   1.000  C
  C74      1.0000 0.95939  0.40003  0.37432  Biso   1.000  C
  C75      1.0000 0.32057  0.72823  0.02962  Biso   1.000  C
  C76      1.0000 0.22989  0.67054  0.10381  Biso   1.000  C
  C77      1.0000 0.79585  0.23649  0.53786  Biso   1.000  C
  C78      1.0000 0.73814  0.17878  0.59557  Biso   1.000  C
  C79      1.0000 0.40992  0.85056  0.92379  Biso   1.000  C
  C80      1.0000 0.46763  0.90828  0.86608  Biso   1.000  C
  C81      1.0000 0.30429  0.34211  0.02942  Biso   1.000  C
  C82      1.0000 0.23037  0.39957  0.10333  Biso   1.000  C
  C83      1.0000 0.90148  0.74495  0.43223  Biso   1.000  C
  C84      1.0000 0.95892  0.67100  0.37479  Biso   1.000  C
  C85      1.0000 0.40972  0.23668  0.92399  Biso   1.000  C
  C86      1.0000 0.46716  0.17925  0.86655  Biso   1.000  C
  C87      1.0000 0.79605  0.85038  0.53766  Biso   1.000  C
  C88      1.0000 0.73861  0.90781  0.59510  Biso   1.000  C
  C89      1.0000 0.90129  0.74513  0.02923  Biso   1.000  C
  C90      1.0000 0.95872  0.67121  0.10314  Biso   1.000  C
  C91      1.0000 0.30448  0.34193  0.43242  Biso   1.000  C
  C92      1.0000 0.23056  0.39936  0.37498  Biso   1.000  C
  C93      1.0000 0.79625  0.85017  0.92419  Biso   1.000  C
  C94      1.0000 0.73881  0.90761  0.86675  Biso   1.000  C
  C95      1.0000 0.40952  0.23689  0.53746  Biso   1.000  C
  C96      1.0000 0.46696  0.17945  0.59490  Biso   1.000  C
  O27      1.0000 0.98004  0.42226  0.29146  Biso   1.000  O
  O28      1.0000 0.14787  0.42036  0.12603  Biso   1.000  O
  O29      1.0000 0.98045  0.58727  0.12568  Biso   1.000  O
  O30      1.0000 0.98162  0.42068  0.41429  Biso   1.000  O
  O31      1.0000 0.97971  0.58851  0.41379  Biso   1.000  O
  O32      1.0000 0.14663  0.42110  0.41464  Biso   1.000  O
  O33      1.0000 0.14704  0.71051  0.12446  Biso   1.000  O
  O34      1.0000 0.98162  0.71001  0.29229  Biso   1.000  O
  O35      1.0000 0.98126  0.71086  0.12487  Biso   1.000  O
  O36      1.0000 0.26986  0.58769  0.12603  Biso   1.000  O
  O37      1.0000 0.26937  0.42226  0.12413  Biso   1.000  O
  O38      1.0000 0.27022  0.42191  0.29105  Biso   1.000  O
  O39      1.0000 0.71748  0.15655  0.67842  Biso   1.000  O
  O40      1.0000 0.54966  0.15846  0.84385  Biso   1.000  O
  O41      1.0000 0.71707  0.99154  0.84421  Biso   1.000  O
  O42      1.0000 0.71591  0.15813  0.55560  Biso   1.000  O
  O43      1.0000 0.71782  0.99031  0.55609  Biso   1.000  O
  O44      1.0000 0.55089  0.15772  0.55524  Biso   1.000  O
  O45      1.0000 0.55048  0.86831  0.84542  Biso   1.000  O
  O46      1.0000 0.71591  0.86880  0.67760  Biso   1.000  O
  O47      1.0000 0.71627  0.86795  0.84501  Biso   1.000  O
  O48      1.0000 0.42766  0.99113  0.84385  Biso   1.000  O
  O49      1.0000 0.42815  0.15655  0.84576  Biso   1.000  O
  O50      1.0000 0.42731  0.15691  0.67883  Biso   1.000  O
  O51      1.0000 0.09464  0.53528  0.23906  Biso   1.000  O
  O52      1.0000 0.60289  0.04353  0.73082  Biso   1.000  O
  H25      1.0000 0.91115  0.61513  0.02583  Biso   1.000  H
  H26      1.0000 0.89789  0.86864  0.02261  Biso   1.000  H
  H27      1.0000 0.80287  0.96366  0.92758  Biso   1.000  H
  H28      1.0000 0.81612  0.71015  0.93080  Biso   1.000  H
  H29      1.0000 0.89912  0.86747  0.31874  Biso   1.000  H
  H30      1.0000 0.80272  0.96386  0.41513  Biso   1.000  H
  H31      1.0000 0.19080  0.33543  0.02706  Biso   1.000  H
  H32      1.0000 0.28720  0.23904  0.93067  Biso   1.000  H
  H33      1.0000 0.89597  0.33841  0.55495  Biso   1.000  H
  H34      1.0000 0.19099  0.33530  0.55593  Biso   1.000  H
  H35      1.0000 0.28700  0.96387  0.92950  Biso   1.000  H
  H36      1.0000 0.28601  0.24028  0.65096  Biso   1.000  H
  H37      1.0000 0.91128  0.61495  0.55475  Biso   1.000  H
  H38      1.0000 0.81489  0.71134  0.65115  Biso   1.000  H
  H39      1.0000 0.42682  0.33975  0.02274  Biso   1.000  H
  H40      1.0000 0.52321  0.24336  0.92635  Biso   1.000  H
  H41      1.0000 0.53971  0.71114  0.92770  Biso   1.000  H
  H42      1.0000 0.42799  0.33854  0.31892  Biso   1.000  H
  H43      1.0000 0.52302  0.24351  0.41395  Biso   1.000  H
  H44      1.0000 0.44349  0.61492  0.02392  Biso   1.000  H
  H45      1.0000 0.80155  0.24040  0.41493  Biso   1.000  H
  H46      1.0000 0.89777  0.33662  0.31872  Biso   1.000  H
  H47      1.0000 0.79976  0.24220  0.65117  Biso   1.000  H
  H48      1.0000 0.19078  0.86765  0.02572  Biso   1.000  H
