data_image0
_cell_length_a       18.101
_cell_length_b       18.101
_cell_length_c       18.101
_cell_angle_alpha    60.0036
_cell_angle_beta     60.0036
_cell_angle_gamma    60.0001

_symmetry_space_group_name_H-M    "P 1"
_symmetry_int_tables_number       1

loop_
  _symmetry_equiv_pos_as_xyz
  'x, y, z'

loop_
  _atom_site_label
  _atom_site_occupancy
  _atom_site_fract_x
  _atom_site_fract_y
  _atom_site_fract_z
  _atom_site_thermal_displace_type
  _atom_site_B_iso_or_equiv
  _atom_site_type_symbol
  C1       1.0000 0.11865  0.29385  0.29380  Biso   1.000  C
  C2       1.0000 0.70615  0.88135  0.70620  Biso   1.000  C
  C3       1.0000 0.88135  0.70615  0.70620  Biso   1.000  C
  C4       1.0000 0.29385  0.11865  0.29380  Biso   1.000  C
  C5       1.0000 0.29392  0.29392  0.11841  Biso   1.000  C
  C6       1.0000 0.29367  0.29367  0.29393  Biso   1.000  C
  C7       1.0000 0.70608  0.70608  0.88159  Biso   1.000  C
  C8       1.0000 0.70633  0.70633  0.70607  Biso   1.000  C
  C9       1.0000 0.15480  0.45200  0.93360  Biso   1.000  C
  C10      1.0000 0.93280  0.45040  0.15620  Biso   1.000  C
  C11      1.0000 0.93080  0.15620  0.44950  Biso   1.000  C
  C12      1.0000 0.54800  0.84520  0.06640  Biso   1.000  C
  C13      1.0000 0.54960  0.06720  0.84380  Biso   1.000  C
  C14      1.0000 0.84380  0.06920  0.55050  Biso   1.000  C
  C15      1.0000 0.84520  0.54800  0.06640  Biso   1.000  C
  C16      1.0000 0.06720  0.54960  0.84380  Biso   1.000  C
  C17      1.0000 0.06920  0.84380  0.55050  Biso   1.000  C
  C18      1.0000 0.45200  0.15480  0.93360  Biso   1.000  C
  C19      1.0000 0.45040  0.93280  0.15620  Biso   1.000  C
  C20      1.0000 0.15620  0.93080  0.44950  Biso   1.000  C
  C21      1.0000 0.12160  0.38280  0.11390  Biso   1.000  C
  C22      1.0000 0.05170  0.44790  0.05410  Biso   1.000  C
  C23      1.0000 0.09080  0.47360  0.96020  Biso   1.000  C
  C24      1.0000 0.96010  0.47210  0.09240  Biso   1.000  C
  C25      1.0000 0.11800  0.38220  0.38200  Biso   1.000  C
  C26      1.0000 0.95710  0.09250  0.47340  Biso   1.000  C
  C27      1.0000 0.61720  0.87840  0.88610  Biso   1.000  C
  C28      1.0000 0.55210  0.94830  0.94590  Biso   1.000  C
  C29      1.0000 0.52640  0.90920  0.03980  Biso   1.000  C
  C30      1.0000 0.52790  0.03990  0.90760  Biso   1.000  C
  C31      1.0000 0.61780  0.88200  0.61800  Biso   1.000  C
  C32      1.0000 0.90750  0.04290  0.52660  Biso   1.000  C
  C33      1.0000 0.87840  0.61720  0.88610  Biso   1.000  C
  C34      1.0000 0.94830  0.55210  0.94590  Biso   1.000  C
  C35      1.0000 0.90920  0.52640  0.03980  Biso   1.000  C
  C36      1.0000 0.03990  0.52790  0.90760  Biso   1.000  C
  C37      1.0000 0.88200  0.61780  0.61800  Biso   1.000  C
  C38      1.0000 0.04290  0.90750  0.52660  Biso   1.000  C
  C39      1.0000 0.38280  0.12160  0.11390  Biso   1.000  C
  C40      1.0000 0.44790  0.05170  0.05410  Biso   1.000  C
  C41      1.0000 0.47360  0.09080  0.96020  Biso   1.000  C
  C42      1.0000 0.47210  0.96010  0.09240  Biso   1.000  C
  C43      1.0000 0.38220  0.11800  0.38200  Biso   1.000  C
  C44      1.0000 0.09250  0.95710  0.47340  Biso   1.000  C
  C45      1.0000 0.38310  0.38310  0.11400  Biso   1.000  C
  C46      1.0000 0.11690  0.11690  0.38110  Biso   1.000  C
  C47      1.0000 0.05150  0.05150  0.45050  Biso   1.000  C
  C48      1.0000 0.61690  0.61690  0.88600  Biso   1.000  C
  C49      1.0000 0.88310  0.88310  0.61890  Biso   1.000  C
  C50      1.0000 0.94850  0.94850  0.54950  Biso   1.000  C
  C51      1.0000 0.19980  0.36640  0.06970  Biso   1.000  C
  C52      1.0000 0.06940  0.36720  0.19730  Biso   1.000  C
  C53      1.0000 0.19960  0.36660  0.36560  Biso   1.000  C
  C54      1.0000 0.06800  0.36680  0.36570  Biso   1.000  C
  C55      1.0000 0.06830  0.19910  0.36730  Biso   1.000  C
  C56      1.0000 0.63360  0.80020  0.93030  Biso   1.000  C
  C57      1.0000 0.63280  0.93060  0.80270  Biso   1.000  C
  C58      1.0000 0.63340  0.80040  0.63440  Biso   1.000  C
  C59      1.0000 0.63320  0.93200  0.63430  Biso   1.000  C
  C60      1.0000 0.80090  0.93170  0.63270  Biso   1.000  C
  C61      1.0000 0.80020  0.63360  0.93030  Biso   1.000  C
  C62      1.0000 0.93060  0.63280  0.80270  Biso   1.000  C
  C63      1.0000 0.80040  0.63340  0.63440  Biso   1.000  C
  C64      1.0000 0.93200  0.63320  0.63430  Biso   1.000  C
  C65      1.0000 0.93170  0.80090  0.63270  Biso   1.000  C
  C66      1.0000 0.36640  0.19980  0.06970  Biso   1.000  C
  C67      1.0000 0.36720  0.06940  0.19730  Biso   1.000  C
  C68      1.0000 0.36660  0.19960  0.36560  Biso   1.000  C
  C69      1.0000 0.36680  0.06800  0.36570  Biso   1.000  C
  C70      1.0000 0.19910  0.06830  0.36730  Biso   1.000  C
  C71      1.0000 0.24870  0.24870  0.25120  Biso   1.000  C
  C72      1.0000 0.36630  0.36630  0.06820  Biso   1.000  C
  C73      1.0000 0.36620  0.36620  0.19910  Biso   1.000  C
  C74      1.0000 0.75130  0.75130  0.74880  Biso   1.000  C
  C75      1.0000 0.63370  0.63370  0.93180  Biso   1.000  C
  C76      1.0000 0.63380  0.63380  0.80090  Biso   1.000  C
  O1       1.0000 0.08690  0.91309  0.91311  Biso   1.000  O
  O2       1.0000 0.91587  0.91305  0.08423  Biso   1.000  O
  O3       1.0000 0.91591  0.08408  0.91311  Biso   1.000  O
  O4       1.0000 0.91591  0.91309  0.91311  Biso   1.000  O
  O5       1.0000 0.50418  0.49855  0.32492  Biso   1.000  O
  O6       1.0000 0.33042  0.49855  0.49866  Biso   1.000  O
  O7       1.0000 0.50419  0.49855  0.49866  Biso   1.000  O
  O8       1.0000 0.50419  0.32479  0.49866  Biso   1.000  O
  O9       1.0000 0.35955  0.66338  0.13989  Biso   1.000  O
  O10      1.0000 0.14536  0.66339  0.35406  Biso   1.000  O
  O11      1.0000 0.66905  0.35394  0.66348  Biso   1.000  O
  O12      1.0000 0.66905  0.13974  0.66348  Biso   1.000  O
  O13      1.0000 0.66903  0.13972  0.35406  Biso   1.000  O
  O14      1.0000 0.66902  0.35391  0.13989  Biso   1.000  O
  O15      1.0000 0.35958  0.66341  0.66348  Biso   1.000  O
  O16      1.0000 0.14537  0.66341  0.66348  Biso   1.000  O
  O17      1.0000 0.14537  0.35394  0.66348  Biso   1.000  O
  O18      1.0000 0.35957  0.13974  0.66348  Biso   1.000  O
  O19      1.0000 0.66903  0.66339  0.35406  Biso   1.000  O
  O20      1.0000 0.66902  0.66338  0.13989  Biso   1.000  O
  O21      1.0000 0.24853  0.73087  0.11593  Biso   1.000  O
  O22      1.0000 0.29707  0.68013  0.16887  Biso   1.000  O
  O23      1.0000 0.12138  0.73087  0.24307  Biso   1.000  O
  O24      1.0000 0.17433  0.68013  0.29159  Biso   1.000  O
  O25      1.0000 0.73654  0.24293  0.73096  Biso   1.000  O
  O26      1.0000 0.68579  0.29146  0.68022  Biso   1.000  O
  O27      1.0000 0.73654  0.11577  0.73096  Biso   1.000  O
  O28      1.0000 0.68579  0.16872  0.68022  Biso   1.000  O
  O29      1.0000 0.73651  0.11575  0.24307  Biso   1.000  O
  O30      1.0000 0.68577  0.16870  0.29159  Biso   1.000  O
  O31      1.0000 0.73651  0.24290  0.11593  Biso   1.000  O
  O32      1.0000 0.68577  0.29144  0.16887  Biso   1.000  O
  O33      1.0000 0.24857  0.73090  0.73096  Biso   1.000  O
  O34      1.0000 0.29710  0.68015  0.68022  Biso   1.000  O
  O35      1.0000 0.12141  0.73090  0.73096  Biso   1.000  O
  O36      1.0000 0.17436  0.68015  0.68022  Biso   1.000  O
  O37      1.0000 0.12141  0.24293  0.73096  Biso   1.000  O
  O38      1.0000 0.17435  0.29146  0.68022  Biso   1.000  O
  O39      1.0000 0.24857  0.11577  0.73096  Biso   1.000  O
  O40      1.0000 0.29710  0.16872  0.68022  Biso   1.000  O
  O41      1.0000 0.73651  0.73087  0.24307  Biso   1.000  O
  O42      1.0000 0.68577  0.68013  0.29159  Biso   1.000  O
  O43      1.0000 0.73651  0.73087  0.11593  Biso   1.000  O
  O44      1.0000 0.68577  0.68013  0.16887  Biso   1.000  O
  O45      1.0000 0.09620  0.81961  0.09076  Biso   1.000  O
  O46      1.0000 0.16039  0.75544  0.15493  Biso   1.000  O
  O47      1.0000 0.31874  0.59710  0.31325  Biso   1.000  O
  O48      1.0000 0.26810  0.64774  0.26262  Biso   1.000  O
  O49      1.0000 0.82529  0.09061  0.81969  Biso   1.000  O
  O50      1.0000 0.76111  0.15478  0.75552  Biso   1.000  O
  O51      1.0000 0.60276  0.31312  0.59720  Biso   1.000  O
  O52      1.0000 0.65340  0.26248  0.64784  Biso   1.000  O
  O53      1.0000 0.82525  0.09057  0.09076  Biso   1.000  O
  O54      1.0000 0.76108  0.15475  0.15493  Biso   1.000  O
  O55      1.0000 0.60274  0.31310  0.31325  Biso   1.000  O
  O56      1.0000 0.65338  0.26246  0.26262  Biso   1.000  O
  O57      1.0000 0.09624  0.81965  0.81969  Biso   1.000  O
  O58      1.0000 0.16042  0.75547  0.75552  Biso   1.000  O
  O59      1.0000 0.31876  0.59712  0.59720  Biso   1.000  O
  O60      1.0000 0.26812  0.64776  0.64784  Biso   1.000  O
  O61      1.0000 0.09624  0.09061  0.81969  Biso   1.000  O
  O62      1.0000 0.16042  0.15478  0.75552  Biso   1.000  O
  O63      1.0000 0.31876  0.31312  0.59720  Biso   1.000  O
  O64      1.0000 0.26812  0.26248  0.64784  Biso   1.000  O
  O65      1.0000 0.82525  0.81961  0.09076  Biso   1.000  O
  O66      1.0000 0.76108  0.75544  0.15493  Biso   1.000  O
  O67      1.0000 0.60274  0.59710  0.31325  Biso   1.000  O
  O68      1.0000 0.65338  0.64774  0.26262  Biso   1.000  O
  O69      1.0000 0.46075  0.45511  0.45523  Biso   1.000  O
  O70      1.0000 0.95655  0.95655  0.95655  Biso   1.000  O
  O71      1.0000 0.13511  0.84167  0.00774  Biso   1.000  O
  O72      1.0000 0.40428  0.57213  0.27766  Biso   1.000  O
  O73      1.0000 0.01317  0.84168  0.12966  Biso   1.000  O
  O74      1.0000 0.28315  0.57214  0.39878  Biso   1.000  O
  O75      1.0000 0.84736  0.12952  0.84175  Biso   1.000  O
  O76      1.0000 0.57778  0.39866  0.57224  Biso   1.000  O
  O77      1.0000 0.84736  0.00757  0.84175  Biso   1.000  O
  O78      1.0000 0.57778  0.27752  0.57224  Biso   1.000  O
  O79      1.0000 0.84732  0.00754  0.12966  Biso   1.000  O
  O80      1.0000 0.57777  0.27751  0.39878  Biso   1.000  O
  O81      1.0000 0.84731  0.12947  0.00774  Biso   1.000  O
  O82      1.0000 0.57777  0.39864  0.27766  Biso   1.000  O
  O83      1.0000 0.13515  0.84172  0.84175  Biso   1.000  O
  O84      1.0000 0.40430  0.57215  0.57224  Biso   1.000  O
  O85      1.0000 0.01321  0.84172  0.84175  Biso   1.000  O
  O86      1.0000 0.28316  0.57215  0.57224  Biso   1.000  O
  O87      1.0000 0.01321  0.12952  0.84175  Biso   1.000  O
  O88      1.0000 0.28316  0.39866  0.57224  Biso   1.000  O
  O89      1.0000 0.13515  0.00757  0.84175  Biso   1.000  O
  O90      1.0000 0.40430  0.27752  0.57224  Biso   1.000  O
  O91      1.0000 0.84732  0.84168  0.12966  Biso   1.000  O
  O92      1.0000 0.57777  0.57214  0.39878  Biso   1.000  O
  O93      1.0000 0.84731  0.84167  0.00774  Biso   1.000  O
  O94      1.0000 0.57777  0.57213  0.27766  Biso   1.000  O
