data_image0
_cell_length_a       18.101
_cell_length_b       18.101
_cell_length_c       18.101
_cell_angle_alpha    60.0036
_cell_angle_beta     60.0036
_cell_angle_gamma    60.0001

loop_
  _atom_site_label
  _atom_site_occupancy
  _atom_site_fract_x
  _atom_site_fract_y
  _atom_site_fract_z
  _atom_site_thermal_displace_type
  _atom_site_B_iso_or_equiv
  _atom_site_type_symbol
  Zn1      1.0000 0.11865  0.29385  0.29380  Biso   1.000  Zn
  Zn2      1.0000 0.70615  0.88135  0.70620  Biso   1.000  Zn
  Zn3      1.0000 0.88135  0.70615  0.70620  Biso   1.000  Zn
  Zn4      1.0000 0.29385  0.11865  0.29380  Biso   1.000  Zn
  Zn5      1.0000 0.29392  0.29392  0.11841  Biso   1.000  Zn
  Zn6      1.0000 0.29367  0.29367  0.29393  Biso   1.000  Zn
  Zn7      1.0000 0.70608  0.70608  0.88159  Biso   1.000  Zn
  Zn8      1.0000 0.70633  0.70633  0.70607  Biso   1.000  Zn
  H1       1.0000 0.15480  0.45200  0.93360  Biso   1.000  H
  H2       1.0000 0.93280  0.45040  0.15620  Biso   1.000  H
  H3       1.0000 0.93080  0.15620  0.44950  Biso   1.000  H
  H4       1.0000 0.54800  0.84520  0.06640  Biso   1.000  H
  H5       1.0000 0.54960  0.06720  0.84380  Biso   1.000  H
  H6       1.0000 0.84380  0.06920  0.55050  Biso   1.000  H
  H7       1.0000 0.84520  0.54800  0.06640  Biso   1.000  H
  H8       1.0000 0.06720  0.54960  0.84380  Biso   1.000  H
  H9       1.0000 0.06920  0.84380  0.55050  Biso   1.000  H
  H10      1.0000 0.45200  0.15480  0.93360  Biso   1.000  H
  H11      1.0000 0.45040  0.93280  0.15620  Biso   1.000  H
  H12      1.0000 0.15620  0.93080  0.44950  Biso   1.000  H
  C1       1.0000 0.12160  0.38280  0.11390  Biso   1.000  C
  C2       1.0000 0.05170  0.44790  0.05410  Biso   1.000  C
  C3       1.0000 0.09080  0.47360  0.96020  Biso   1.000  C
  C4       1.0000 0.96010  0.47210  0.09240  Biso   1.000  C
  C5       1.0000 0.11800  0.38220  0.38200  Biso   1.000  C
  C6       1.0000 0.95710  0.09250  0.47340  Biso   1.000  C
  C7       1.0000 0.61720  0.87840  0.88610  Biso   1.000  C
  C8       1.0000 0.55210  0.94830  0.94590  Biso   1.000  C
  C9       1.0000 0.52640  0.90920  0.03980  Biso   1.000  C
  C10      1.0000 0.52790  0.03990  0.90760  Biso   1.000  C
  C11      1.0000 0.61780  0.88200  0.61800  Biso   1.000  C
  C12      1.0000 0.90750  0.04290  0.52660  Biso   1.000  C
  C13      1.0000 0.87840  0.61720  0.88610  Biso   1.000  C
  C14      1.0000 0.94830  0.55210  0.94590  Biso   1.000  C
  C15      1.0000 0.90920  0.52640  0.03980  Biso   1.000  C
  C16      1.0000 0.03990  0.52790  0.90760  Biso   1.000  C
  C17      1.0000 0.88200  0.61780  0.61800  Biso   1.000  C
  C18      1.0000 0.04290  0.90750  0.52660  Biso   1.000  C
  C19      1.0000 0.38280  0.12160  0.11390  Biso   1.000  C
  C20      1.0000 0.44790  0.05170  0.05410  Biso   1.000  C
  C21      1.0000 0.47360  0.09080  0.96020  Biso   1.000  C
  C22      1.0000 0.47210  0.96010  0.09240  Biso   1.000  C
  C23      1.0000 0.38220  0.11800  0.38200  Biso   1.000  C
  C24      1.0000 0.09250  0.95710  0.47340  Biso   1.000  C
  C25      1.0000 0.38310  0.38310  0.11400  Biso   1.000  C
  C26      1.0000 0.11690  0.11690  0.38110  Biso   1.000  C
  C27      1.0000 0.05150  0.05150  0.45050  Biso   1.000  C
  C28      1.0000 0.61690  0.61690  0.88600  Biso   1.000  C
  C29      1.0000 0.88310  0.88310  0.61890  Biso   1.000  C
  C30      1.0000 0.94850  0.94850  0.54950  Biso   1.000  C
  O1       1.0000 0.19980  0.36640  0.06970  Biso   1.000  O
  O2       1.0000 0.06940  0.36720  0.19730  Biso   1.000  O
  O3       1.0000 0.19960  0.36660  0.36560  Biso   1.000  O
  O4       1.0000 0.06800  0.36680  0.36570  Biso   1.000  O
  O5       1.0000 0.06830  0.19910  0.36730  Biso   1.000  O
  O6       1.0000 0.63360  0.80020  0.93030  Biso   1.000  O
  O7       1.0000 0.63280  0.93060  0.80270  Biso   1.000  O
  O8       1.0000 0.63340  0.80040  0.63440  Biso   1.000  O
  O9       1.0000 0.63320  0.93200  0.63430  Biso   1.000  O
  O10      1.0000 0.80090  0.93170  0.63270  Biso   1.000  O
  O11      1.0000 0.80020  0.63360  0.93030  Biso   1.000  O
  O12      1.0000 0.93060  0.63280  0.80270  Biso   1.000  O
  O13      1.0000 0.80040  0.63340  0.63440  Biso   1.000  O
  O14      1.0000 0.93200  0.63320  0.63430  Biso   1.000  O
  O15      1.0000 0.93170  0.80090  0.63270  Biso   1.000  O
  O16      1.0000 0.36640  0.19980  0.06970  Biso   1.000  O
  O17      1.0000 0.36720  0.06940  0.19730  Biso   1.000  O
  O18      1.0000 0.36660  0.19960  0.36560  Biso   1.000  O
  O19      1.0000 0.36680  0.06800  0.36570  Biso   1.000  O
  O20      1.0000 0.19910  0.06830  0.36730  Biso   1.000  O
  O21      1.0000 0.24870  0.24870  0.25120  Biso   1.000  O
  O22      1.0000 0.36630  0.36630  0.06820  Biso   1.000  O
  O23      1.0000 0.36620  0.36620  0.19910  Biso   1.000  O
  O24      1.0000 0.75130  0.75130  0.74880  Biso   1.000  O
  O25      1.0000 0.63370  0.63370  0.93180  Biso   1.000  O
  O26      1.0000 0.63380  0.63380  0.80090  Biso   1.000  O
  Zn9      1.0000 0.29905  0.56409  0.61054  Biso   1.000  Zn
  Zn10     1.0000 0.47328  0.56403  0.43633  Biso   1.000  Zn
  Zn11     1.0000 0.47334  0.38981  0.61054  Biso   1.000  Zn
  Zn12     1.0000 0.47329  0.56404  0.61059  Biso   1.000  Zn
  Zn13     1.0000 0.05766  0.97960  0.02080  Biso   1.000  Zn
  Zn14     1.0000 0.88343  0.97965  0.19501  Biso   1.000  Zn
  Zn15     1.0000 0.88337  0.15388  0.02080  Biso   1.000  Zn
  Zn16     1.0000 0.88342  0.97965  0.02075  Biso   1.000  Zn
  C31      1.0000 0.13916  0.74549  0.40857  Biso   1.000  C
  C32      1.0000 0.13810  0.36181  0.78587  Biso   1.000  C
  C33      1.0000 0.13931  0.74609  0.78486  Biso   1.000  C
  C34      1.0000 0.27127  0.74448  0.27647  Biso   1.000  C
  C35      1.0000 0.64847  0.74651  0.27546  Biso   1.000  C
  C36      1.0000 0.64746  0.36203  0.27666  Biso   1.000  C
  C37      1.0000 0.64923  0.23534  0.78566  Biso   1.000  C
  C38      1.0000 0.27103  0.23433  0.78768  Biso   1.000  C
  C39      1.0000 0.64988  0.23555  0.40856  Biso   1.000  C
  C40      1.0000 0.64823  0.36202  0.78666  Biso   1.000  C
  C41      1.0000 0.65029  0.74470  0.40836  Biso   1.000  C
  C42      1.0000 0.27123  0.74367  0.78728  Biso   1.000  C
  C43      1.0000 0.21755  0.79819  0.22277  Biso   1.000  C
  C44      1.0000 0.21855  0.18185  0.84015  Biso   1.000  C
  C45      1.0000 0.21734  0.79757  0.84116  Biso   1.000  C
  C46      1.0000 0.08544  0.79920  0.35487  Biso   1.000  C
  C47      1.0000 0.70277  0.79718  0.35588  Biso   1.000  C
  C48      1.0000 0.70377  0.18166  0.35468  Biso   1.000  C
  C49      1.0000 0.70194  0.31375  0.84037  Biso   1.000  C
  C50      1.0000 0.08562  0.31477  0.83835  Biso   1.000  C
  C51      1.0000 0.70135  0.31357  0.22278  Biso   1.000  C
  C52      1.0000 0.70295  0.18164  0.83936  Biso   1.000  C
  C53      1.0000 0.70095  0.79899  0.22298  Biso   1.000  C
  C54      1.0000 0.08542  0.79998  0.83875  Biso   1.000  C
  C55      1.0000 0.23245  0.71775  0.36976  Biso   1.000  C
  C56      1.0000 0.29146  0.65876  0.42875  Biso   1.000  C
  C57      1.0000 0.62149  0.32320  0.75893  Biso   1.000  C
  C58      1.0000 0.56802  0.38223  0.70525  Biso   1.000  C
  C59      1.0000 0.12426  0.82593  0.26158  Biso   1.000  C
  C60      1.0000 0.06525  0.88493  0.20259  Biso   1.000  C
  C61      1.0000 0.72969  0.22046  0.86710  Biso   1.000  C
  C62      1.0000 0.78869  0.16146  0.92609  Biso   1.000  C
  C63      1.0000 0.23221  0.71793  0.75913  Biso   1.000  C
  C64      1.0000 0.29099  0.65925  0.70573  Biso   1.000  C
  C65      1.0000 0.62173  0.32846  0.36955  Biso   1.000  C
  C66      1.0000 0.56849  0.38174  0.42827  Biso   1.000  C
  C67      1.0000 0.12443  0.82572  0.86690  Biso   1.000  C
  C68      1.0000 0.06572  0.88444  0.92561  Biso   1.000  C
  C69      1.0000 0.72951  0.22067  0.26178  Biso   1.000  C
  C70      1.0000 0.78823  0.16195  0.20307  Biso   1.000  C
  C71      1.0000 0.23201  0.32824  0.75933  Biso   1.000  C
  C72      1.0000 0.29079  0.38154  0.70593  Biso   1.000  C
  C73      1.0000 0.62193  0.71815  0.36935  Biso   1.000  C
  C74      1.0000 0.56869  0.65944  0.42806  Biso   1.000  C
  C75      1.0000 0.12464  0.22086  0.86670  Biso   1.000  C
  C76      1.0000 0.06592  0.16214  0.92541  Biso   1.000  C
  C77      1.0000 0.72931  0.82553  0.26199  Biso   1.000  C
  C78      1.0000 0.78802  0.88425  0.20328  Biso   1.000  C
  O27      1.0000 0.25060  0.63603  0.51344  Biso   1.000  O
  O28      1.0000 0.25111  0.63799  0.68253  Biso   1.000  O
  O29      1.0000 0.25025  0.46735  0.68289  Biso   1.000  O
  O30      1.0000 0.37616  0.63764  0.38789  Biso   1.000  O
  O31      1.0000 0.54528  0.46607  0.38839  Biso   1.000  O
  O32      1.0000 0.54564  0.63722  0.38753  Biso   1.000  O
  O33      1.0000 0.54530  0.34137  0.68414  Biso   1.000  O
  O34      1.0000 0.54724  0.34186  0.51259  Biso   1.000  O
  O35      1.0000 0.37660  0.34100  0.68372  Biso   1.000  O
  O36      1.0000 0.54690  0.46693  0.68253  Biso   1.000  O
  O37      1.0000 0.37533  0.63604  0.68448  Biso   1.000  O
  O38      1.0000 0.54647  0.63640  0.51386  Biso   1.000  O
  O39      1.0000 0.10611  0.90765  0.11790  Biso   1.000  O
  O40      1.0000 0.10560  0.90570  0.94881  Biso   1.000  O
  O41      1.0000 0.10646  0.07634  0.94845  Biso   1.000  O
  O42      1.0000 0.98055  0.90605  0.24345  Biso   1.000  O
  O43      1.0000 0.81143  0.07762  0.24295  Biso   1.000  O
  O44      1.0000 0.81107  0.90647  0.24381  Biso   1.000  O
  O45      1.0000 0.81142  0.20232  0.94720  Biso   1.000  O
  O46      1.0000 0.80948  0.20182  0.11875  Biso   1.000  O
  O47      1.0000 0.98011  0.20268  0.94762  Biso   1.000  O
  O48      1.0000 0.80981  0.07676  0.94881  Biso   1.000  O
  O49      1.0000 0.98138  0.90765  0.94686  Biso   1.000  O
  O50      1.0000 0.81024  0.90729  0.11748  Biso   1.000  O
  O51      1.0000 0.42974  0.52049  0.56700  Biso   1.000  O
  O52      1.0000 0.92697  0.02320  0.06434  Biso   1.000  O
  H13      1.0000 0.10575  0.43882  0.76280  Biso   1.000  H
  H14      1.0000 0.34805  0.20197  0.76609  Biso   1.000  H
  H15      1.0000 0.25090  0.10483  0.86323  Biso   1.000  H
  H16      1.0000 0.00860  0.34168  0.85993  Biso   1.000  H
  H17      1.0000 0.62856  0.20320  0.48556  Biso   1.000  H
  H18      1.0000 0.72710  0.10466  0.38703  Biso   1.000  H
  H19      1.0000 0.10695  0.72476  0.76154  Biso   1.000  H
  H20      1.0000 0.00841  0.82331  0.86007  Biso   1.000  H
  H21      1.0000 0.34829  0.72174  0.24411  Biso   1.000  H
  H22      1.0000 0.62539  0.72492  0.24311  Biso   1.000  H
  H23      1.0000 0.72569  0.10462  0.86127  Biso   1.000  H
  H24      1.0000 0.72253  0.82206  0.14597  Biso   1.000  H
  H25      1.0000 0.62413  0.43903  0.24431  Biso   1.000  H
  H26      1.0000 0.72267  0.34048  0.14578  Biso   1.000  H
  H27      1.0000 0.34824  0.72035  0.76595  Biso   1.000  H
  H28      1.0000 0.24970  0.81889  0.86448  Biso   1.000  H
  H29      1.0000 0.72385  0.34068  0.86311  Biso   1.000  H
  H30      1.0000 0.62870  0.72163  0.48537  Biso   1.000  H
  H31      1.0000 0.72585  0.81877  0.38823  Biso   1.000  H
  H32      1.0000 0.62548  0.43904  0.76476  Biso   1.000  H
  H33      1.0000 0.00842  0.82195  0.38723  Biso   1.000  H
  H34      1.0000 0.10680  0.72359  0.48558  Biso   1.000  H
  H35      1.0000 0.24991  0.82010  0.14576  Biso   1.000  H
  H36      1.0000 0.62732  0.20298  0.76292  Biso   1.000  H
