data_image0
_cell_length_a       18.2519
_cell_length_b       18.2519
_cell_length_c       18.252
_cell_angle_alpha    60.0037
_cell_angle_beta     60.0037
_cell_angle_gamma    60.0005

loop_
  _atom_site_label
  _atom_site_occupancy
  _atom_site_fract_x
  _atom_site_fract_y
  _atom_site_fract_z
  _atom_site_thermal_displace_type
  _atom_site_B_iso_or_equiv
  _atom_site_type_symbol
  C1       1.0000 0.88127  0.70639  0.20624  Biso   1.000  C
  C2       1.0000 0.29361  0.11873  0.79376  Biso   1.000  C
  C3       1.0000 0.11873  0.29361  0.79376  Biso   1.000  C
  C4       1.0000 0.70639  0.88127  0.20624  Biso   1.000  C
  C5       1.0000 0.70606  0.70606  0.38133  Biso   1.000  C
  C6       1.0000 0.70624  0.70624  0.20614  Biso   1.000  C
  C7       1.0000 0.29394  0.29394  0.61867  Biso   1.000  C
  C8       1.0000 0.29376  0.29376  0.79386  Biso   1.000  C
  C9       1.0000 0.54630  0.06090  0.34980  Biso   1.000  C
  C10      1.0000 0.54310  0.84610  0.56150  Biso   1.000  C
  C11      1.0000 0.54720  0.05980  0.04610  Biso   1.000  C
  C12      1.0000 0.54320  0.84860  0.04380  Biso   1.000  C
  C13      1.0000 0.06260  0.84660  0.04860  Biso   1.000  C
  C14      1.0000 0.93910  0.45370  0.65020  Biso   1.000  C
  C15      1.0000 0.15390  0.45690  0.43850  Biso   1.000  C
  C16      1.0000 0.94020  0.45280  0.95390  Biso   1.000  C
  C17      1.0000 0.15140  0.45680  0.95620  Biso   1.000  C
  C18      1.0000 0.15340  0.93740  0.95140  Biso   1.000  C
  C19      1.0000 0.45370  0.93910  0.65020  Biso   1.000  C
  C20      1.0000 0.45690  0.15390  0.43850  Biso   1.000  C
  C21      1.0000 0.45280  0.94020  0.95390  Biso   1.000  C
  C22      1.0000 0.45680  0.15140  0.95620  Biso   1.000  C
  C23      1.0000 0.93740  0.15340  0.95140  Biso   1.000  C
  C24      1.0000 0.06090  0.54630  0.34980  Biso   1.000  C
  C25      1.0000 0.84610  0.54310  0.56150  Biso   1.000  C
  C26      1.0000 0.05980  0.54720  0.04610  Biso   1.000  C
  C27      1.0000 0.84860  0.54320  0.04380  Biso   1.000  C
  C28      1.0000 0.84660  0.06260  0.04860  Biso   1.000  C
  C29      1.0000 0.54440  0.54440  0.34770  Biso   1.000  C
  C30      1.0000 0.54330  0.54330  0.56380  Biso   1.000  C
  C31      1.0000 0.45560  0.45560  0.65230  Biso   1.000  C
  C32      1.0000 0.45670  0.45670  0.43620  Biso   1.000  C
  C33      1.0000 0.61220  0.88980  0.38620  Biso   1.000  C
  C34      1.0000 0.55250  0.94790  0.44740  Biso   1.000  C
  C35      1.0000 0.52760  0.03520  0.41200  Biso   1.000  C
  C36      1.0000 0.52640  0.90820  0.53550  Biso   1.000  C
  C37      1.0000 0.61340  0.88660  0.10910  Biso   1.000  C
  C38      1.0000 0.55610  0.94510  0.05380  Biso   1.000  C
  C39      1.0000 0.52920  0.03360  0.02810  Biso   1.000  C
  C40      1.0000 0.52640  0.91060  0.02630  Biso   1.000  C
  C41      1.0000 0.03650  0.90870  0.02850  Biso   1.000  C
  C42      1.0000 0.11020  0.38780  0.61380  Biso   1.000  C
  C43      1.0000 0.05210  0.44750  0.55260  Biso   1.000  C
  C44      1.0000 0.96480  0.47240  0.58800  Biso   1.000  C
  C45      1.0000 0.09180  0.47360  0.46450  Biso   1.000  C
  C46      1.0000 0.11340  0.38660  0.89090  Biso   1.000  C
  C47      1.0000 0.05490  0.44390  0.94620  Biso   1.000  C
  C48      1.0000 0.96640  0.47080  0.97190  Biso   1.000  C
  C49      1.0000 0.08940  0.47360  0.97370  Biso   1.000  C
  C50      1.0000 0.09130  0.96350  0.97150  Biso   1.000  C
  C51      1.0000 0.38780  0.11020  0.61380  Biso   1.000  C
  C52      1.0000 0.44750  0.05210  0.55260  Biso   1.000  C
  C53      1.0000 0.47240  0.96480  0.58800  Biso   1.000  C
  C54      1.0000 0.47360  0.09180  0.46450  Biso   1.000  C
  C55      1.0000 0.38660  0.11340  0.89090  Biso   1.000  C
  C56      1.0000 0.44390  0.05490  0.94620  Biso   1.000  C
  C57      1.0000 0.47080  0.96640  0.97190  Biso   1.000  C
  C58      1.0000 0.47360  0.08940  0.97370  Biso   1.000  C
  C59      1.0000 0.96350  0.09130  0.97150  Biso   1.000  C
  C60      1.0000 0.88980  0.61220  0.38620  Biso   1.000  C
  C61      1.0000 0.94790  0.55250  0.44740  Biso   1.000  C
  C62      1.0000 0.03520  0.52760  0.41200  Biso   1.000  C
  C63      1.0000 0.90820  0.52640  0.53550  Biso   1.000  C
  C64      1.0000 0.88660  0.61340  0.10910  Biso   1.000  C
  C65      1.0000 0.94510  0.55610  0.05380  Biso   1.000  C
  C66      1.0000 0.03360  0.52920  0.02810  Biso   1.000  C
  C67      1.0000 0.91060  0.52640  0.02630  Biso   1.000  C
  C68      1.0000 0.90870  0.03650  0.02850  Biso   1.000  C
  C69      1.0000 0.61140  0.61140  0.39300  Biso   1.000  C
  C70      1.0000 0.55420  0.55420  0.44520  Biso   1.000  C
  C71      1.0000 0.52700  0.52700  0.40970  Biso   1.000  C
  C72      1.0000 0.52580  0.52580  0.53670  Biso   1.000  C
  C73      1.0000 0.88480  0.88480  0.11710  Biso   1.000  C
  C74      1.0000 0.94650  0.94650  0.05370  Biso   1.000  C
  C75      1.0000 0.38860  0.38860  0.60700  Biso   1.000  C
  C76      1.0000 0.44580  0.44580  0.55480  Biso   1.000  C
  C77      1.0000 0.47300  0.47300  0.59030  Biso   1.000  C
  C78      1.0000 0.47420  0.47420  0.46330  Biso   1.000  C
  C79      1.0000 0.11520  0.11520  0.88290  Biso   1.000  C
  C80      1.0000 0.05350  0.05350  0.94630  Biso   1.000  C
  C81      1.0000 0.63160  0.80440  0.43210  Biso   1.000  C
  C82      1.0000 0.63370  0.93370  0.30200  Biso   1.000  C
  C83      1.0000 0.63020  0.80340  0.13560  Biso   1.000  C
  C84      1.0000 0.63310  0.93070  0.13160  Biso   1.000  C
  C85      1.0000 0.93080  0.80240  0.13440  Biso   1.000  C
  C86      1.0000 0.19560  0.36840  0.56790  Biso   1.000  C
  C87      1.0000 0.06630  0.36630  0.69800  Biso   1.000  C
  C88      1.0000 0.19660  0.36980  0.86440  Biso   1.000  C
  C89      1.0000 0.06930  0.36690  0.86840  Biso   1.000  C
  C90      1.0000 0.19760  0.06920  0.86560  Biso   1.000  C
  C91      1.0000 0.36840  0.19560  0.56790  Biso   1.000  C
  C92      1.0000 0.36630  0.06630  0.69800  Biso   1.000  C
  C93      1.0000 0.36980  0.19660  0.86440  Biso   1.000  C
  C94      1.0000 0.36690  0.06930  0.86840  Biso   1.000  C
  C95      1.0000 0.06920  0.19760  0.86560  Biso   1.000  C
  C96      1.0000 0.80440  0.63160  0.43210  Biso   1.000  C
  C97      1.0000 0.93370  0.63370  0.30200  Biso   1.000  C
  C98      1.0000 0.80340  0.63020  0.13560  Biso   1.000  C
  C99      1.0000 0.93070  0.63310  0.13160  Biso   1.000  C
  C100     1.0000 0.80240  0.93080  0.13440  Biso   1.000  C
  C101     1.0000 0.75020  0.75020  0.25030  Biso   1.000  C
  C102     1.0000 0.63260  0.63260  0.43140  Biso   1.000  C
  C103     1.0000 0.63030  0.63030  0.31000  Biso   1.000  C
  C104     1.0000 0.24980  0.24980  0.74970  Biso   1.000  C
  C105     1.0000 0.36740  0.36740  0.56860  Biso   1.000  C
  C106     1.0000 0.36970  0.36970  0.69000  Biso   1.000  C
  O1       1.0000 0.32624  0.52173  0.13344  Biso   1.000  O
  O2       1.0000 0.49760  0.52168  0.96210  Biso   1.000  O
  O3       1.0000 0.49766  0.35032  0.13344  Biso   1.000  O
  O4       1.0000 0.49762  0.52168  0.13349  Biso   1.000  O
  O5       1.0000 0.08883  0.93040  0.55342  Biso   1.000  O
  O6       1.0000 0.91747  0.93045  0.72476  Biso   1.000  O
  O7       1.0000 0.91741  0.10181  0.55342  Biso   1.000  O
  O8       1.0000 0.91746  0.93045  0.55337  Biso   1.000  O
  O9       1.0000 0.16898  0.70015  0.93480  Biso   1.000  O
  O10      1.0000 0.16794  0.32279  0.32236  Biso   1.000  O
  O11      1.0000 0.16913  0.70073  0.32137  Biso   1.000  O
  O12      1.0000 0.29892  0.69916  0.80488  Biso   1.000  O
  O13      1.0000 0.68637  0.70114  0.80388  Biso   1.000  O
  O14      1.0000 0.68538  0.32300  0.80507  Biso   1.000  O
  O15      1.0000 0.68712  0.18193  0.32215  Biso   1.000  O
  O16      1.0000 0.29869  0.18093  0.32414  Biso   1.000  O
  O17      1.0000 0.68777  0.18214  0.93479  Biso   1.000  O
  O18      1.0000 0.68613  0.32299  0.32314  Biso   1.000  O
  O19      1.0000 0.68816  0.69937  0.93459  Biso   1.000  O
  O20      1.0000 0.29888  0.69836  0.32374  Biso   1.000  O
  O21      1.0000 0.24609  0.75198  0.75206  Biso   1.000  O
  O22      1.0000 0.24707  0.12931  0.37575  Biso   1.000  O
  O23      1.0000 0.24588  0.75137  0.37674  Biso   1.000  O
  O24      1.0000 0.11615  0.75297  0.88198  Biso   1.000  O
  O25      1.0000 0.73978  0.75099  0.88298  Biso   1.000  O
  O26      1.0000 0.74077  0.12913  0.88179  Biso   1.000  O
  O27      1.0000 0.73897  0.25904  0.37596  Biso   1.000  O
  O28      1.0000 0.11633  0.26004  0.37397  Biso   1.000  O
  O29      1.0000 0.73839  0.25887  0.75207  Biso   1.000  O
  O30      1.0000 0.73995  0.12911  0.37497  Biso   1.000  O
  O31      1.0000 0.73799  0.75276  0.75227  Biso   1.000  O
  O32      1.0000 0.11613  0.75374  0.37437  Biso   1.000  O
  O33      1.0000 0.26074  0.67286  0.89662  Biso   1.000  O
  O34      1.0000 0.31878  0.61484  0.95464  Biso   1.000  O
  O35      1.0000 0.65983  0.28481  0.29586  Biso   1.000  O
  O36      1.0000 0.59079  0.34287  0.22659  Biso   1.000  O
  O37      1.0000 0.15433  0.77926  0.79023  Biso   1.000  O
  O38      1.0000 0.09630  0.83729  0.73221  Biso   1.000  O
  O39      1.0000 0.76625  0.16729  0.40225  Biso   1.000  O
  O40      1.0000 0.82429  0.10926  0.46027  Biso   1.000  O
  O41      1.0000 0.26051  0.67304  0.29606  Biso   1.000  O
  O42      1.0000 0.31832  0.61532  0.22706  Biso   1.000  O
  O43      1.0000 0.66007  0.27351  0.89643  Biso   1.000  O
  O44      1.0000 0.59124  0.34238  0.95417  Biso   1.000  O
  O45      1.0000 0.15450  0.77906  0.40205  Biso   1.000  O
  O46      1.0000 0.09675  0.83681  0.45979  Biso   1.000  O
  O47      1.0000 0.76608  0.16750  0.79043  Biso   1.000  O
  O48      1.0000 0.82383  0.10974  0.73269  Biso   1.000  O
  O49      1.0000 0.26031  0.27329  0.29625  Biso   1.000  O
  O50      1.0000 0.31812  0.34220  0.22726  Biso   1.000  O
  O51      1.0000 0.66027  0.67326  0.89623  Biso   1.000  O
  O52      1.0000 0.59144  0.61551  0.95397  Biso   1.000  O
  O53      1.0000 0.15470  0.16768  0.40185  Biso   1.000  O
  O54      1.0000 0.09695  0.10993  0.45960  Biso   1.000  O
  O55      1.0000 0.76588  0.77887  0.79063  Biso   1.000  O
  O56      1.0000 0.82363  0.83662  0.73289  Biso   1.000  O
  O57      1.0000 0.27859  0.59249  0.03794  Biso   1.000  O
  O58      1.0000 0.27910  0.59442  0.20424  Biso   1.000  O
  O59      1.0000 0.27824  0.42659  0.20460  Biso   1.000  O
  O60      1.0000 0.40208  0.59407  0.91446  Biso   1.000  O
  O61      1.0000 0.56842  0.42533  0.91496  Biso   1.000  O
  O62      1.0000 0.56877  0.59366  0.91411  Biso   1.000  O
  O63      1.0000 0.56843  0.30268  0.20583  Biso   1.000  O
  O64      1.0000 0.57034  0.30317  0.03711  Biso   1.000  O
  O65      1.0000 0.40251  0.30232  0.20541  Biso   1.000  O
  O66      1.0000 0.57002  0.42617  0.20424  Biso   1.000  O
  O67      1.0000 0.40127  0.59250  0.20616  Biso   1.000  O
  O68      1.0000 0.56959  0.59285  0.03835  Biso   1.000  O
  O69      1.0000 0.13648  0.85964  0.64892  Biso   1.000  O
  O70      1.0000 0.13597  0.85771  0.48261  Biso   1.000  O
  O71      1.0000 0.13683  0.02554  0.48226  Biso   1.000  O
  O72      1.0000 0.01299  0.85806  0.77240  Biso   1.000  O
  O73      1.0000 0.84665  0.02680  0.77190  Biso   1.000  O
  O74      1.0000 0.84630  0.85847  0.77275  Biso   1.000  O
  O75      1.0000 0.84664  0.14945  0.48103  Biso   1.000  O
  O76      1.0000 0.84473  0.14896  0.64975  Biso   1.000  O
  O77      1.0000 0.01256  0.14981  0.48145  Biso   1.000  O
  O78      1.0000 0.84505  0.02596  0.48261  Biso   1.000  O
  O79      1.0000 0.01380  0.85963  0.48070  Biso   1.000  O
  O80      1.0000 0.84548  0.85928  0.64851  Biso   1.000  O
  O81      1.0000 0.45478  0.47885  0.09062  Biso   1.000  O
  O82      1.0000 0.96029  0.97328  0.59624  Biso   1.000  O
  O83      1.0000 0.13612  0.39853  0.29967  Biso   1.000  O
  O84      1.0000 0.37444  0.14911  0.30291  Biso   1.000  O
  O85      1.0000 0.27889  0.05357  0.39844  Biso   1.000  O
  O86      1.0000 0.04057  0.30299  0.39520  Biso   1.000  O
  O87      1.0000 0.66680  0.15032  0.01052  Biso   1.000  O
  O88      1.0000 0.76371  0.05339  0.91361  Biso   1.000  O
  O89      1.0000 0.13731  0.67976  0.29843  Biso   1.000  O
  O90      1.0000 0.04039  0.77668  0.39534  Biso   1.000  O
  O91      1.0000 0.37467  0.67679  0.77305  Biso   1.000  O
  O92      1.0000 0.66367  0.67991  0.77206  Biso   1.000  O
  O93      1.0000 0.76232  0.05336  0.39651  Biso   1.000  O
  O94      1.0000 0.75921  0.77545  0.67653  Biso   1.000  O
  O95      1.0000 0.66243  0.39874  0.77325  Biso   1.000  O
  O96      1.0000 0.75935  0.30181  0.67634  Biso   1.000  O
  O97      1.0000 0.37462  0.67542  0.30277  Biso   1.000  O
  O98      1.0000 0.27770  0.77234  0.39968  Biso   1.000  O
  O99      1.0000 0.76051  0.30200  0.39832  Biso   1.000  O
  O100     1.0000 0.66693  0.67668  0.01033  Biso   1.000  O
  O101     1.0000 0.76247  0.77222  0.91480  Biso   1.000  O
  O102     1.0000 0.66376  0.39874  0.30159  Biso   1.000  O
  O103     1.0000 0.04040  0.77534  0.91381  Biso   1.000  O
  O104     1.0000 0.13715  0.67860  0.01054  Biso   1.000  O
  O105     1.0000 0.27792  0.77353  0.67632  Biso   1.000  O
  O106     1.0000 0.66557  0.15010  0.29978  Biso   1.000  O
